nohup: ignoriere Eingabe
*************************************
Configuring physics suite 'conus'

         mp_physics:      2*
         cu_physics:      1*
      ra_lw_physics:      1*
      ra_sw_physics:      1*
     bl_pbl_physics:      1*
  sf_sfclay_physics:      1*
 sf_surface_physics:      2*

(* = option overrides suite setting)
*************************************
WRF V4.1.2 MODEL
DYNAMICS OPTION: Eulerian Mass Coordinate
   alloc_space_field: domain            1 ,            2527848920  bytes allocated
  med_initialdata_input: calling input_input
   Input data is acceptable to use: wrfinput_d01
Timing for processing wrfinput file (stream 0) for domain        1:    0.44992 elapsed seconds
Max map factor in domain 1 =  1.70. Scale the dt in the model accordingly.
INPUT LandUse = "USGS"
 LANDUSE TYPE = "USGS" FOUND          33  CATEGORIES           2  SEASONS WATER CATEGORY =           16  SNOW CATEGORY =           24
INITIALIZE THREE Noah LSM RELATED TABLES
 LANDUSE TYPE = USGS FOUND          27  CATEGORIES
 INPUT SOIL TEXTURE CLASSIFICATION = STAS
 SOIL TEXTURE CLASSIFICATION = STAS FOUND          19  CATEGORIES
*********************************************************************
*             PROGRAM:WRF-Chem V4.1.2 MODEL
*                                                                   *
*    PLEASE REPORT ANY BUGS TO WRF-Chem HELP at                     *
*                                                                   *
*              wrfchemhelp.gsd@noaa.gov                             *
*                                                                   *
*********************************************************************
Timing for Writing wrfout_d01_2009-09-18_00:00:00 for domain        1:    0.97742 elapsed seconds
 mediation_integrate: med_read_wrf_chem_emissions: Open file wrfchemi_00z_d01
 HOURLY EMISSIONS UPDATE TIME        0.0       0.0
mediation_integrate: med_read_wrf_chem_emissions: Read emissions for time 2009-09-18_00:00:00
d01 2009-09-18_00:00:00  Input data is acceptable to use: wrfbdy_d01
Timing for processing lateral boundary for domain        1:    0.03160 elapsed seconds
 Tile Strategy is not specified. Assuming 1D-Y
WRF TILE   1 IS      1 IE    165 JS      1 JE    125
WRF NUMBER OF TILES =   1
Timing for main: time 2009-09-18_00:03:00 on domain   1:    6.66581 elapsed seconds
Timing for main: time 2009-09-18_00:06:00 on domain   1:    4.01449 elapsed seconds
Timing for main: time 2009-09-18_00:09:00 on domain   1:    5.74294 elapsed seconds
Timing for main: time 2009-09-18_00:12:00 on domain   1:    5.85424 elapsed seconds
Timing for main: time 2009-09-18_00:15:00 on domain   1:    5.91756 elapsed seconds
Timing for main: time 2009-09-18_00:18:00 on domain   1:    5.96512 elapsed seconds
Timing for main: time 2009-09-18_00:21:00 on domain   1:    6.00144 elapsed seconds
Timing for main: time 2009-09-18_00:24:00 on domain   1:    6.05402 elapsed seconds
Timing for main: time 2009-09-18_00:27:00 on domain   1:    6.02579 elapsed seconds
Timing for main: time 2009-09-18_00:30:00 on domain   1:    6.02582 elapsed seconds
Timing for main: time 2009-09-18_00:33:00 on domain   1:    7.99972 elapsed seconds
Timing for main: time 2009-09-18_00:36:00 on domain   1:    6.02787 elapsed seconds
Timing for main: time 2009-09-18_00:39:00 on domain   1:    6.03046 elapsed seconds
Timing for main: time 2009-09-18_00:42:00 on domain   1:    6.03882 elapsed seconds
Timing for main: time 2009-09-18_00:45:00 on domain   1:    6.04986 elapsed seconds
Timing for main: time 2009-09-18_00:48:00 on domain   1:    6.05224 elapsed seconds
Timing for main: time 2009-09-18_00:51:00 on domain   1:    6.07811 elapsed seconds
Timing for main: time 2009-09-18_00:54:00 on domain   1:    6.08853 elapsed seconds
Timing for main: time 2009-09-18_00:57:00 on domain   1:    6.09097 elapsed seconds
Timing for main: time 2009-09-18_01:00:00 on domain   1:    6.11224 elapsed seconds
Timing for main: time 2009-09-18_01:03:00 on domain   1:    8.09695 elapsed seconds
Timing for main: time 2009-09-18_01:06:00 on domain   1:    6.17790 elapsed seconds
Timing for main: time 2009-09-18_01:09:00 on domain   1:    6.13805 elapsed seconds
Timing for main: time 2009-09-18_01:12:00 on domain   1:    6.12727 elapsed seconds
Timing for main: time 2009-09-18_01:15:00 on domain   1:    6.12123 elapsed seconds
Timing for main: time 2009-09-18_01:18:00 on domain   1:    6.13469 elapsed seconds
Timing for main: time 2009-09-18_01:21:00 on domain   1:    6.12457 elapsed seconds
Timing for main: time 2009-09-18_01:24:00 on domain   1:    6.13864 elapsed seconds
Timing for main: time 2009-09-18_01:27:00 on domain   1:    6.14366 elapsed seconds
Timing for main: time 2009-09-18_01:30:00 on domain   1:    6.18169 elapsed seconds
Timing for main: time 2009-09-18_01:33:00 on domain   1:    8.13740 elapsed seconds
Timing for main: time 2009-09-18_01:36:00 on domain   1:    6.18484 elapsed seconds
Timing for main: time 2009-09-18_01:39:00 on domain   1:    6.17820 elapsed seconds
Timing for main: time 2009-09-18_01:42:00 on domain   1:    6.17476 elapsed seconds
Timing for main: time 2009-09-18_01:45:00 on domain   1:    6.18163 elapsed seconds
Timing for main: time 2009-09-18_01:48:00 on domain   1:    6.19355 elapsed seconds
Timing for main: time 2009-09-18_01:51:00 on domain   1:    6.18050 elapsed seconds
Timing for main: time 2009-09-18_01:54:00 on domain   1:    6.17590 elapsed seconds
Timing for main: time 2009-09-18_01:57:00 on domain   1:    6.17354 elapsed seconds
Timing for main: time 2009-09-18_02:00:00 on domain   1:    6.17493 elapsed seconds
Timing for main: time 2009-09-18_02:03:00 on domain   1:    8.19256 elapsed seconds
Timing for main: time 2009-09-18_02:06:00 on domain   1:    6.20280 elapsed seconds
Timing for main: time 2009-09-18_02:09:00 on domain   1:    6.18878 elapsed seconds
Timing for main: time 2009-09-18_02:12:00 on domain   1:    6.18411 elapsed seconds
Timing for main: time 2009-09-18_02:15:00 on domain   1:    6.18498 elapsed seconds
Timing for main: time 2009-09-18_02:18:00 on domain   1:    6.17979 elapsed seconds
Timing for main: time 2009-09-18_02:21:00 on domain   1:    6.20164 elapsed seconds
Timing for main: time 2009-09-18_02:24:00 on domain   1:    6.18585 elapsed seconds
Timing for main: time 2009-09-18_02:27:00 on domain   1:    6.17315 elapsed seconds
Timing for main: time 2009-09-18_02:30:00 on domain   1:    6.19872 elapsed seconds
Timing for main: time 2009-09-18_02:33:00 on domain   1:    8.17770 elapsed seconds
Timing for main: time 2009-09-18_02:36:00 on domain   1:    6.19847 elapsed seconds
Timing for main: time 2009-09-18_02:39:00 on domain   1:    6.19718 elapsed seconds
Timing for main: time 2009-09-18_02:42:00 on domain   1:    6.19202 elapsed seconds
Timing for main: time 2009-09-18_02:45:00 on domain   1:    6.18565 elapsed seconds
Timing for main: time 2009-09-18_02:48:00 on domain   1:    6.19269 elapsed seconds
Timing for main: time 2009-09-18_02:51:00 on domain   1:    6.18961 elapsed seconds
Timing for main: time 2009-09-18_02:54:00 on domain   1:    6.17708 elapsed seconds
Timing for main: time 2009-09-18_02:57:00 on domain   1:    6.17956 elapsed seconds
Timing for main: time 2009-09-18_03:00:00 on domain   1:    6.21174 elapsed seconds
Timing for Writing wrfout_d01_2009-09-18_03:00:00 for domain        1:    0.58748 elapsed seconds
Timing for main: time 2009-09-18_03:03:00 on domain   1:    8.78672 elapsed seconds
Timing for main: time 2009-09-18_03:06:00 on domain   1:    6.20591 elapsed seconds
Timing for main: time 2009-09-18_03:09:00 on domain   1:    6.20995 elapsed seconds
Timing for main: time 2009-09-18_03:12:00 on domain   1:    6.21917 elapsed seconds
Timing for main: time 2009-09-18_03:15:00 on domain   1:    6.20862 elapsed seconds
Timing for main: time 2009-09-18_03:18:00 on domain   1:    6.20262 elapsed seconds
Timing for main: time 2009-09-18_03:21:00 on domain   1:    6.20895 elapsed seconds
Timing for main: time 2009-09-18_03:24:00 on domain   1:    6.18293 elapsed seconds
Timing for main: time 2009-09-18_03:27:00 on domain   1:    6.18874 elapsed seconds
Timing for main: time 2009-09-18_03:30:00 on domain   1:    6.19846 elapsed seconds
Timing for main: time 2009-09-18_03:33:00 on domain   1:    8.17315 elapsed seconds
Timing for main: time 2009-09-18_03:36:00 on domain   1:    6.21495 elapsed seconds
Timing for main: time 2009-09-18_03:39:00 on domain   1:    6.20845 elapsed seconds
Timing for main: time 2009-09-18_03:42:00 on domain   1:    6.20808 elapsed seconds
Timing for main: time 2009-09-18_03:45:00 on domain   1:    6.21149 elapsed seconds
Timing for main: time 2009-09-18_03:48:00 on domain   1:    6.21076 elapsed seconds
Timing for main: time 2009-09-18_03:51:00 on domain   1:    6.23334 elapsed seconds
Timing for main: time 2009-09-18_03:54:00 on domain   1:    6.22706 elapsed seconds
Timing for main: time 2009-09-18_03:57:00 on domain   1:    6.27666 elapsed seconds
Timing for main: time 2009-09-18_04:00:00 on domain   1:    6.25076 elapsed seconds
Timing for main: time 2009-09-18_04:03:00 on domain   1:    8.22345 elapsed seconds
Timing for main: time 2009-09-18_04:06:00 on domain   1:    6.27466 elapsed seconds
Timing for main: time 2009-09-18_04:09:00 on domain   1:    6.25843 elapsed seconds
Timing for main: time 2009-09-18_04:12:00 on domain   1:    6.25126 elapsed seconds
Timing for main: time 2009-09-18_04:15:00 on domain   1:    6.25384 elapsed seconds
Timing for main: time 2009-09-18_04:18:00 on domain   1:    6.23127 elapsed seconds
Timing for main: time 2009-09-18_04:21:00 on domain   1:    6.24305 elapsed seconds
Timing for main: time 2009-09-18_04:24:00 on domain   1:    6.23686 elapsed seconds
Timing for main: time 2009-09-18_04:27:00 on domain   1:    6.25786 elapsed seconds
Timing for main: time 2009-09-18_04:30:00 on domain   1:    6.25853 elapsed seconds
Timing for main: time 2009-09-18_04:33:00 on domain   1:    8.25883 elapsed seconds
Timing for main: time 2009-09-18_04:36:00 on domain   1:    6.26097 elapsed seconds
Timing for main: time 2009-09-18_04:39:00 on domain   1:    6.27740 elapsed seconds
Timing for main: time 2009-09-18_04:42:00 on domain   1:    6.25700 elapsed seconds
Timing for main: time 2009-09-18_04:45:00 on domain   1:    6.25483 elapsed seconds
Timing for main: time 2009-09-18_04:48:00 on domain   1:    6.25550 elapsed seconds
Timing for main: time 2009-09-18_04:51:00 on domain   1:    6.25408 elapsed seconds
Timing for main: time 2009-09-18_04:54:00 on domain   1:    6.30836 elapsed seconds
Timing for main: time 2009-09-18_04:57:00 on domain   1:    6.27190 elapsed seconds
Timing for main: time 2009-09-18_05:00:00 on domain   1:    6.28965 elapsed seconds
Timing for main: time 2009-09-18_05:03:00 on domain   1:    8.27938 elapsed seconds
Timing for main: time 2009-09-18_05:06:00 on domain   1:    6.29798 elapsed seconds
Timing for main: time 2009-09-18_05:09:00 on domain   1:    6.29554 elapsed seconds
Timing for main: time 2009-09-18_05:12:00 on domain   1:    6.30167 elapsed seconds
Timing for main: time 2009-09-18_05:15:00 on domain   1:    6.30636 elapsed seconds
Timing for main: time 2009-09-18_05:18:00 on domain   1:    6.32556 elapsed seconds
Timing for main: time 2009-09-18_05:21:00 on domain   1:    6.31254 elapsed seconds
Timing for main: time 2009-09-18_05:24:00 on domain   1:    6.28061 elapsed seconds
Timing for main: time 2009-09-18_05:27:00 on domain   1:    6.30761 elapsed seconds
Timing for main: time 2009-09-18_05:30:00 on domain   1:    6.32265 elapsed seconds
Timing for main: time 2009-09-18_05:33:00 on domain   1:    8.31816 elapsed seconds
Timing for main: time 2009-09-18_05:36:00 on domain   1:    6.33674 elapsed seconds
Timing for main: time 2009-09-18_05:39:00 on domain   1:    6.32781 elapsed seconds
Timing for main: time 2009-09-18_05:42:00 on domain   1:    6.31562 elapsed seconds
Timing for main: time 2009-09-18_05:45:00 on domain   1:    6.31397 elapsed seconds
Timing for main: time 2009-09-18_05:48:00 on domain   1:    6.32401 elapsed seconds
Timing for main: time 2009-09-18_05:51:00 on domain   1:    6.33585 elapsed seconds
Timing for main: time 2009-09-18_05:54:00 on domain   1:    6.33103 elapsed seconds
Timing for main: time 2009-09-18_05:57:00 on domain   1:    6.32764 elapsed seconds
Timing for main: time 2009-09-18_06:00:00 on domain   1:    6.34480 elapsed seconds
Timing for Writing wrfout_d01_2009-09-18_06:00:00 for domain        1:    0.58044 elapsed seconds
d01 2009-09-18_06:00:00  Input data is acceptable to use: wrfbdy_d01
Timing for processing lateral boundary for domain        1:    0.90468 elapsed seconds
Timing for main: time 2009-09-18_06:03:00 on domain   1:    9.81447 elapsed seconds
Timing for main: time 2009-09-18_06:06:00 on domain   1:    6.33163 elapsed seconds
Timing for main: time 2009-09-18_06:09:00 on domain   1:    6.32940 elapsed seconds
Timing for main: time 2009-09-18_06:12:00 on domain   1:    6.32208 elapsed seconds
Timing for main: time 2009-09-18_06:15:00 on domain   1:    6.32505 elapsed seconds
Timing for main: time 2009-09-18_06:18:00 on domain   1:    6.36364 elapsed seconds
Timing for main: time 2009-09-18_06:21:00 on domain   1:    6.37402 elapsed seconds
Timing for main: time 2009-09-18_06:24:00 on domain   1:    6.36868 elapsed seconds
Timing for main: time 2009-09-18_06:27:00 on domain   1:    6.38538 elapsed seconds
Timing for main: time 2009-09-18_06:30:00 on domain   1:    6.37743 elapsed seconds
Timing for main: time 2009-09-18_06:33:00 on domain   1:    8.32376 elapsed seconds
Timing for main: time 2009-09-18_06:36:00 on domain   1:    6.34382 elapsed seconds
Timing for main: time 2009-09-18_06:39:00 on domain   1:    6.33144 elapsed seconds
Timing for main: time 2009-09-18_06:42:00 on domain   1:    6.32675 elapsed seconds
Timing for main: time 2009-09-18_06:45:00 on domain   1:    6.37765 elapsed seconds
Timing for main: time 2009-09-18_06:48:00 on domain   1:    6.39162 elapsed seconds
Timing for main: time 2009-09-18_06:51:00 on domain   1:    6.38352 elapsed seconds
Timing for main: time 2009-09-18_06:54:00 on domain   1:    6.37639 elapsed seconds
Timing for main: time 2009-09-18_06:57:00 on domain   1:    6.37786 elapsed seconds
Timing for main: time 2009-09-18_07:00:00 on domain   1:    6.38752 elapsed seconds
Timing for main: time 2009-09-18_07:03:00 on domain   1:    8.33201 elapsed seconds
Timing for main: time 2009-09-18_07:06:00 on domain   1:    6.38002 elapsed seconds
Timing for main: time 2009-09-18_07:09:00 on domain   1:    6.36540 elapsed seconds
Timing for main: time 2009-09-18_07:12:00 on domain   1:    6.36393 elapsed seconds
Timing for main: time 2009-09-18_07:15:00 on domain   1:    6.37659 elapsed seconds
Timing for main: time 2009-09-18_07:18:00 on domain   1:    6.38229 elapsed seconds
Timing for main: time 2009-09-18_07:21:00 on domain   1:    6.39622 elapsed seconds
Timing for main: time 2009-09-18_07:24:00 on domain   1:    6.39988 elapsed seconds
Timing for main: time 2009-09-18_07:27:00 on domain   1:    6.40355 elapsed seconds
Timing for main: time 2009-09-18_07:30:00 on domain   1:    6.40301 elapsed seconds
Timing for main: time 2009-09-18_07:33:00 on domain   1:    8.33871 elapsed seconds
Timing for main: time 2009-09-18_07:36:00 on domain   1:    6.39199 elapsed seconds
Timing for main: time 2009-09-18_07:39:00 on domain   1:    6.42966 elapsed seconds
Timing for main: time 2009-09-18_07:42:00 on domain   1:    6.39512 elapsed seconds
Timing for main: time 2009-09-18_07:45:00 on domain   1:    6.43552 elapsed seconds
Timing for main: time 2009-09-18_07:48:00 on domain   1:    6.44594 elapsed seconds
Timing for main: time 2009-09-18_07:51:00 on domain   1:    6.40601 elapsed seconds
Timing for main: time 2009-09-18_07:54:00 on domain   1:    6.40474 elapsed seconds
Timing for main: time 2009-09-18_07:57:00 on domain   1:    6.42940 elapsed seconds
Timing for main: time 2009-09-18_08:00:00 on domain   1:    6.44811 elapsed seconds
Timing for main: time 2009-09-18_08:03:00 on domain   1:    8.38759 elapsed seconds
Timing for main: time 2009-09-18_08:06:00 on domain   1:    6.42910 elapsed seconds
Timing for main: time 2009-09-18_08:09:00 on domain   1:    6.42318 elapsed seconds
Timing for main: time 2009-09-18_08:12:00 on domain   1:    6.43193 elapsed seconds
Timing for main: time 2009-09-18_08:15:00 on domain   1:    6.44869 elapsed seconds
Timing for main: time 2009-09-18_08:18:00 on domain   1:    6.45977 elapsed seconds
Timing for main: time 2009-09-18_08:21:00 on domain   1:    6.45099 elapsed seconds
Timing for main: time 2009-09-18_08:24:00 on domain   1:    6.44210 elapsed seconds
Timing for main: time 2009-09-18_08:27:00 on domain   1:    6.40890 elapsed seconds
Timing for main: time 2009-09-18_08:30:00 on domain   1:    6.43989 elapsed seconds
Timing for main: time 2009-09-18_08:33:00 on domain   1:    8.39668 elapsed seconds
Timing for main: time 2009-09-18_08:36:00 on domain   1:    6.44569 elapsed seconds
Timing for main: time 2009-09-18_08:39:00 on domain   1:    6.43024 elapsed seconds
Timing for main: time 2009-09-18_08:42:00 on domain   1:    6.44326 elapsed seconds
Timing for main: time 2009-09-18_08:45:00 on domain   1:    6.44211 elapsed seconds
Timing for main: time 2009-09-18_08:48:00 on domain   1:    6.44123 elapsed seconds
Timing for main: time 2009-09-18_08:51:00 on domain   1:    6.44162 elapsed seconds
Timing for main: time 2009-09-18_08:54:00 on domain   1:    6.42959 elapsed seconds
Timing for main: time 2009-09-18_08:57:00 on domain   1:    6.42975 elapsed seconds
Timing for main: time 2009-09-18_09:00:00 on domain   1:    6.46450 elapsed seconds
Timing for Writing wrfout_d01_2009-09-18_09:00:00 for domain        1:    0.57917 elapsed seconds
Timing for main: time 2009-09-18_09:03:00 on domain   1:    8.97185 elapsed seconds
Timing for main: time 2009-09-18_09:06:00 on domain   1:    6.42125 elapsed seconds
Timing for main: time 2009-09-18_09:09:00 on domain   1:    6.41694 elapsed seconds
Timing for main: time 2009-09-18_09:12:00 on domain   1:    6.44885 elapsed seconds
Timing for main: time 2009-09-18_09:15:00 on domain   1:    6.47130 elapsed seconds
Timing for main: time 2009-09-18_09:18:00 on domain   1:    6.45408 elapsed seconds
Timing for main: time 2009-09-18_09:21:00 on domain   1:    6.45664 elapsed seconds
Timing for main: time 2009-09-18_09:24:00 on domain   1:    6.45668 elapsed seconds
Timing for main: time 2009-09-18_09:27:00 on domain   1:    6.48044 elapsed seconds
Timing for main: time 2009-09-18_09:30:00 on domain   1:    6.51555 elapsed seconds
Timing for main: time 2009-09-18_09:33:00 on domain   1:    8.41518 elapsed seconds
Timing for main: time 2009-09-18_09:36:00 on domain   1:    6.46187 elapsed seconds
Timing for main: time 2009-09-18_09:39:00 on domain   1:    6.48168 elapsed seconds
Timing for main: time 2009-09-18_09:42:00 on domain   1:    6.47559 elapsed seconds
Timing for main: time 2009-09-18_09:45:00 on domain   1:    6.46794 elapsed seconds
Timing for main: time 2009-09-18_09:48:00 on domain   1:    6.47391 elapsed seconds
Timing for main: time 2009-09-18_09:51:00 on domain   1:    6.46846 elapsed seconds
Timing for main: time 2009-09-18_09:54:00 on domain   1:    6.45313 elapsed seconds
Timing for main: time 2009-09-18_09:57:00 on domain   1:    6.46675 elapsed seconds
Timing for main: time 2009-09-18_10:00:00 on domain   1:    6.49842 elapsed seconds
Timing for main: time 2009-09-18_10:03:00 on domain   1:    8.40911 elapsed seconds
Timing for main: time 2009-09-18_10:06:00 on domain   1:    6.45829 elapsed seconds
Timing for main: time 2009-09-18_10:09:00 on domain   1:    6.47376 elapsed seconds
Timing for main: time 2009-09-18_10:12:00 on domain   1:    6.48883 elapsed seconds
Timing for main: time 2009-09-18_10:15:00 on domain   1:    6.48739 elapsed seconds
Timing for main: time 2009-09-18_10:18:00 on domain   1:    6.49503 elapsed seconds
Timing for main: time 2009-09-18_10:21:00 on domain   1:    6.49831 elapsed seconds
Timing for main: time 2009-09-18_10:24:00 on domain   1:    6.52117 elapsed seconds
Timing for main: time 2009-09-18_10:27:00 on domain   1:    6.50640 elapsed seconds
Timing for main: time 2009-09-18_10:30:00 on domain   1:    6.51478 elapsed seconds
Timing for main: time 2009-09-18_10:33:00 on domain   1:    8.40319 elapsed seconds
Timing for main: time 2009-09-18_10:36:00 on domain   1:    6.46017 elapsed seconds
Timing for main: time 2009-09-18_10:39:00 on domain   1:    6.49415 elapsed seconds
Timing for main: time 2009-09-18_10:42:00 on domain   1:    6.47054 elapsed seconds
Timing for main: time 2009-09-18_10:45:00 on domain   1:    6.46640 elapsed seconds
Timing for main: time 2009-09-18_10:48:00 on domain   1:    6.48037 elapsed seconds
Timing for main: time 2009-09-18_10:51:00 on domain   1:    6.47976 elapsed seconds
Timing for main: time 2009-09-18_10:54:00 on domain   1:    6.49018 elapsed seconds
Timing for main: time 2009-09-18_10:57:00 on domain   1:    6.49388 elapsed seconds
Timing for main: time 2009-09-18_11:00:00 on domain   1:    6.51411 elapsed seconds
Timing for main: time 2009-09-18_11:03:00 on domain   1:    8.43960 elapsed seconds
Timing for main: time 2009-09-18_11:06:00 on domain   1:    6.52716 elapsed seconds
Timing for main: time 2009-09-18_11:09:00 on domain   1:    6.52496 elapsed seconds
Timing for main: time 2009-09-18_11:12:00 on domain   1:    6.52032 elapsed seconds
Timing for main: time 2009-09-18_11:15:00 on domain   1:    6.51187 elapsed seconds
Timing for main: time 2009-09-18_11:18:00 on domain   1:    6.52275 elapsed seconds
Timing for main: time 2009-09-18_11:21:00 on domain   1:    6.51256 elapsed seconds
Timing for main: time 2009-09-18_11:24:00 on domain   1:    6.51662 elapsed seconds
Timing for main: time 2009-09-18_11:27:00 on domain   1:    6.52460 elapsed seconds
Timing for main: time 2009-09-18_11:30:00 on domain   1:    6.53461 elapsed seconds
Timing for main: time 2009-09-18_11:33:00 on domain   1:    8.45330 elapsed seconds
Timing for main: time 2009-09-18_11:36:00 on domain   1:    6.54337 elapsed seconds
Timing for main: time 2009-09-18_11:39:00 on domain   1:    6.53851 elapsed seconds
Timing for main: time 2009-09-18_11:42:00 on domain   1:    6.53514 elapsed seconds
Timing for main: time 2009-09-18_11:45:00 on domain   1:    6.51003 elapsed seconds
Timing for main: time 2009-09-18_11:48:00 on domain   1:    6.49482 elapsed seconds
Timing for main: time 2009-09-18_11:51:00 on domain   1:    6.50661 elapsed seconds
Timing for main: time 2009-09-18_11:54:00 on domain   1:    6.50654 elapsed seconds
Timing for main: time 2009-09-18_11:57:00 on domain   1:    6.50512 elapsed seconds
Timing for main: time 2009-09-18_12:00:00 on domain   1:    6.53837 elapsed seconds
Timing for Writing wrfout_d01_2009-09-18_12:00:00 for domain        1:    0.57939 elapsed seconds
d01 2009-09-18_12:00:00  Input data is acceptable to use: wrfbdy_d01
Timing for processing lateral boundary for domain        1:    0.06408 elapsed seconds
Timing for main: time 2009-09-18_12:03:00 on domain   1:    9.15219 elapsed seconds
Timing for main: time 2009-09-18_12:06:00 on domain   1:    6.52229 elapsed seconds
Timing for main: time 2009-09-18_12:09:00 on domain   1:    6.50224 elapsed seconds
Timing for main: time 2009-09-18_12:12:00 on domain   1:    6.51889 elapsed seconds
Timing for main: time 2009-09-18_12:15:00 on domain   1:    6.48716 elapsed seconds
Timing for main: time 2009-09-18_12:18:00 on domain   1:    6.50705 elapsed seconds
Timing for main: time 2009-09-18_12:21:00 on domain   1:    6.50383 elapsed seconds
Timing for main: time 2009-09-18_12:24:00 on domain   1:    6.50668 elapsed seconds
Timing for main: time 2009-09-18_12:27:00 on domain   1:    6.49463 elapsed seconds
Timing for main: time 2009-09-18_12:30:00 on domain   1:    6.52979 elapsed seconds
Timing for main: time 2009-09-18_12:33:00 on domain   1:    8.46155 elapsed seconds
Timing for main: time 2009-09-18_12:36:00 on domain   1:    6.52092 elapsed seconds
Timing for main: time 2009-09-18_12:39:00 on domain   1:    6.49671 elapsed seconds
Timing for main: time 2009-09-18_12:42:00 on domain   1:    6.51313 elapsed seconds
Timing for main: time 2009-09-18_12:45:00 on domain   1:    6.50045 elapsed seconds
Timing for main: time 2009-09-18_12:48:00 on domain   1:    6.50089 elapsed seconds
Timing for main: time 2009-09-18_12:51:00 on domain   1:    6.51268 elapsed seconds
Timing for main: time 2009-09-18_12:54:00 on domain   1:    6.52551 elapsed seconds
Timing for main: time 2009-09-18_12:57:00 on domain   1:    6.51743 elapsed seconds
Timing for main: time 2009-09-18_13:00:00 on domain   1:    6.54163 elapsed seconds
Timing for main: time 2009-09-18_13:03:00 on domain   1:    8.49714 elapsed seconds
Timing for main: time 2009-09-18_13:06:00 on domain   1:    6.57138 elapsed seconds
Timing for main: time 2009-09-18_13:09:00 on domain   1:    6.53277 elapsed seconds
Timing for main: time 2009-09-18_13:12:00 on domain   1:    6.51921 elapsed seconds
Timing for main: time 2009-09-18_13:15:00 on domain   1:    6.51920 elapsed seconds
Timing for main: time 2009-09-18_13:18:00 on domain   1:    6.51677 elapsed seconds
Timing for main: time 2009-09-18_13:21:00 on domain   1:    6.52537 elapsed seconds
Timing for main: time 2009-09-18_13:24:00 on domain   1:    6.52765 elapsed seconds
Timing for main: time 2009-09-18_13:27:00 on domain   1:    6.52911 elapsed seconds
Timing for main: time 2009-09-18_13:30:00 on domain   1:    6.55214 elapsed seconds
Timing for main: time 2009-09-18_13:33:00 on domain   1:    8.51011 elapsed seconds
Timing for main: time 2009-09-18_13:36:00 on domain   1:    6.52376 elapsed seconds
Timing for main: time 2009-09-18_13:39:00 on domain   1:    6.51263 elapsed seconds
Timing for main: time 2009-09-18_13:42:00 on domain   1:    6.50567 elapsed seconds
Timing for main: time 2009-09-18_13:45:00 on domain   1:    6.50273 elapsed seconds
Timing for main: time 2009-09-18_13:48:00 on domain   1:    6.49654 elapsed seconds
Timing for main: time 2009-09-18_13:51:00 on domain   1:    6.51202 elapsed seconds
Timing for main: time 2009-09-18_13:54:00 on domain   1:    6.49450 elapsed seconds
Timing for main: time 2009-09-18_13:57:00 on domain   1:    6.49729 elapsed seconds
Timing for main: time 2009-09-18_14:00:00 on domain   1:    6.57396 elapsed seconds
Timing for main: time 2009-09-18_14:03:00 on domain   1:    8.47891 elapsed seconds
Timing for main: time 2009-09-18_14:06:00 on domain   1:    6.51794 elapsed seconds
Timing for main: time 2009-09-18_14:09:00 on domain   1:    6.50844 elapsed seconds
Timing for main: time 2009-09-18_14:12:00 on domain   1:    6.49749 elapsed seconds
Timing for main: time 2009-09-18_14:15:00 on domain   1:    6.51689 elapsed seconds
Timing for main: time 2009-09-18_14:18:00 on domain   1:    6.50970 elapsed seconds
Timing for main: time 2009-09-18_14:21:00 on domain   1:    6.51113 elapsed seconds
Timing for main: time 2009-09-18_14:24:00 on domain   1:    6.51797 elapsed seconds
Timing for main: time 2009-09-18_14:27:00 on domain   1:    6.51187 elapsed seconds
Timing for main: time 2009-09-18_14:30:00 on domain   1:    6.52792 elapsed seconds
Timing for main: time 2009-09-18_14:33:00 on domain   1:    8.44840 elapsed seconds
Timing for main: time 2009-09-18_14:36:00 on domain   1:    6.50915 elapsed seconds
Timing for main: time 2009-09-18_14:39:00 on domain   1:    6.50377 elapsed seconds
Timing for main: time 2009-09-18_14:42:00 on domain   1:    6.53429 elapsed seconds
Timing for main: time 2009-09-18_14:45:00 on domain   1:    6.54020 elapsed seconds
Timing for main: time 2009-09-18_14:48:00 on domain   1:    6.53579 elapsed seconds
Timing for main: time 2009-09-18_14:51:00 on domain   1:    6.50981 elapsed seconds
Timing for main: time 2009-09-18_14:54:00 on domain   1:    6.53103 elapsed seconds
Timing for main: time 2009-09-18_14:57:00 on domain   1:    6.54824 elapsed seconds
Timing for main: time 2009-09-18_15:00:00 on domain   1:    6.52384 elapsed seconds
Timing for Writing wrfout_d01_2009-09-18_15:00:00 for domain        1:    0.58424 elapsed seconds
Timing for main: time 2009-09-18_15:03:00 on domain   1:    9.03630 elapsed seconds
Timing for main: time 2009-09-18_15:06:00 on domain   1:    6.52505 elapsed seconds
Timing for main: time 2009-09-18_15:09:00 on domain   1:    6.52345 elapsed seconds
Timing for main: time 2009-09-18_15:12:00 on domain   1:    6.53874 elapsed seconds
Timing for main: time 2009-09-18_15:15:00 on domain   1:    6.53411 elapsed seconds
Timing for main: time 2009-09-18_15:18:00 on domain   1:    6.54156 elapsed seconds
Timing for main: time 2009-09-18_15:21:00 on domain   1:    6.54150 elapsed seconds
Timing for main: time 2009-09-18_15:24:00 on domain   1:    6.51720 elapsed seconds
Timing for main: time 2009-09-18_15:27:00 on domain   1:    6.53155 elapsed seconds
Timing for main: time 2009-09-18_15:30:00 on domain   1:    6.54788 elapsed seconds
Timing for main: time 2009-09-18_15:33:00 on domain   1:    8.46915 elapsed seconds
Timing for main: time 2009-09-18_15:36:00 on domain   1:    6.53044 elapsed seconds
Timing for main: time 2009-09-18_15:39:00 on domain   1:    6.55351 elapsed seconds
Timing for main: time 2009-09-18_15:42:00 on domain   1:    6.54586 elapsed seconds
Timing for main: time 2009-09-18_15:45:00 on domain   1:    6.53039 elapsed seconds
Timing for main: time 2009-09-18_15:48:00 on domain   1:    6.55667 elapsed seconds
Timing for main: time 2009-09-18_15:51:00 on domain   1:    6.55208 elapsed seconds
Timing for main: time 2009-09-18_15:54:00 on domain   1:    6.53996 elapsed seconds
Timing for main: time 2009-09-18_15:57:00 on domain   1:    6.55354 elapsed seconds
Timing for main: time 2009-09-18_16:00:00 on domain   1:    6.56427 elapsed seconds
Timing for main: time 2009-09-18_16:03:00 on domain   1:    8.48295 elapsed seconds
Timing for main: time 2009-09-18_16:06:00 on domain   1:    6.54102 elapsed seconds
Timing for main: time 2009-09-18_16:09:00 on domain   1:    6.57097 elapsed seconds
Timing for main: time 2009-09-18_16:12:00 on domain   1:    6.53898 elapsed seconds
Timing for main: time 2009-09-18_16:15:00 on domain   1:    6.53322 elapsed seconds
Timing for main: time 2009-09-18_16:18:00 on domain   1:    6.54134 elapsed seconds
Timing for main: time 2009-09-18_16:21:00 on domain   1:    6.53677 elapsed seconds
Timing for main: time 2009-09-18_16:24:00 on domain   1:    6.55322 elapsed seconds
Timing for main: time 2009-09-18_16:27:00 on domain   1:    6.55264 elapsed seconds
Timing for main: time 2009-09-18_16:30:00 on domain   1:    6.57128 elapsed seconds
Timing for main: time 2009-09-18_16:33:00 on domain   1:    8.50418 elapsed seconds
Timing for main: time 2009-09-18_16:36:00 on domain   1:    6.57187 elapsed seconds
Timing for main: time 2009-09-18_16:39:00 on domain   1:    6.56733 elapsed seconds
Timing for main: time 2009-09-18_16:42:00 on domain   1:    6.57888 elapsed seconds
Timing for main: time 2009-09-18_16:45:00 on domain   1:    6.56034 elapsed seconds
Timing for main: time 2009-09-18_16:48:00 on domain   1:    6.56764 elapsed seconds
Timing for main: time 2009-09-18_16:51:00 on domain   1:    6.57771 elapsed seconds
Timing for main: time 2009-09-18_16:54:00 on domain   1:    6.57145 elapsed seconds
Timing for main: time 2009-09-18_16:57:00 on domain   1:    6.58277 elapsed seconds
Timing for main: time 2009-09-18_17:00:00 on domain   1:    6.59492 elapsed seconds
Timing for main: time 2009-09-18_17:03:00 on domain   1:    8.52455 elapsed seconds
Timing for main: time 2009-09-18_17:06:00 on domain   1:    6.60629 elapsed seconds
Timing for main: time 2009-09-18_17:09:00 on domain   1:    6.59221 elapsed seconds
Timing for main: time 2009-09-18_17:12:00 on domain   1:    6.58813 elapsed seconds
Timing for main: time 2009-09-18_17:15:00 on domain   1:    6.58679 elapsed seconds
Timing for main: time 2009-09-18_17:18:00 on domain   1:    6.59040 elapsed seconds
Timing for main: time 2009-09-18_17:21:00 on domain   1:    6.59199 elapsed seconds
Timing for main: time 2009-09-18_17:24:00 on domain   1:    6.58988 elapsed seconds
Timing for main: time 2009-09-18_17:27:00 on domain   1:    6.58709 elapsed seconds
Timing for main: time 2009-09-18_17:30:00 on domain   1:    6.60874 elapsed seconds
Timing for main: time 2009-09-18_17:33:00 on domain   1:    8.54544 elapsed seconds
Timing for main: time 2009-09-18_17:36:00 on domain   1:    6.62519 elapsed seconds
Timing for main: time 2009-09-18_17:39:00 on domain   1:    6.58223 elapsed seconds
Timing for main: time 2009-09-18_17:42:00 on domain   1:    6.57647 elapsed seconds
Timing for main: time 2009-09-18_17:45:00 on domain   1:    6.56711 elapsed seconds
Timing for main: time 2009-09-18_17:48:00 on domain   1:    6.58469 elapsed seconds
Timing for main: time 2009-09-18_17:51:00 on domain   1:    6.58354 elapsed seconds
Timing for main: time 2009-09-18_17:54:00 on domain   1:    6.61111 elapsed seconds
Timing for main: time 2009-09-18_17:57:00 on domain   1:    6.63427 elapsed seconds
Timing for main: time 2009-09-18_18:00:00 on domain   1:    6.64718 elapsed seconds
Timing for Writing wrfout_d01_2009-09-18_18:00:00 for domain        1:    0.58515 elapsed seconds
d01 2009-09-18_18:00:00  Input data is acceptable to use: wrfbdy_d01
Timing for processing lateral boundary for domain        1:    0.06606 elapsed seconds
Timing for main: time 2009-09-18_18:03:00 on domain   1:    9.24662 elapsed seconds
Timing for main: time 2009-09-18_18:06:00 on domain   1:    6.63470 elapsed seconds
Timing for main: time 2009-09-18_18:09:00 on domain   1:    6.62851 elapsed seconds
Timing for main: time 2009-09-18_18:12:00 on domain   1:    6.62916 elapsed seconds
Timing for main: time 2009-09-18_18:15:00 on domain   1:    6.60948 elapsed seconds
Timing for main: time 2009-09-18_18:18:00 on domain   1:    6.62597 elapsed seconds
Timing for main: time 2009-09-18_18:21:00 on domain   1:    6.60212 elapsed seconds
Timing for main: time 2009-09-18_18:24:00 on domain   1:    6.62603 elapsed seconds
Timing for main: time 2009-09-18_18:27:00 on domain   1:    6.62396 elapsed seconds
Timing for main: time 2009-09-18_18:30:00 on domain   1:    6.68076 elapsed seconds
Timing for main: time 2009-09-18_18:33:00 on domain   1:    8.60150 elapsed seconds
Timing for main: time 2009-09-18_18:36:00 on domain   1:    6.64915 elapsed seconds
Timing for main: time 2009-09-18_18:39:00 on domain   1:    6.63276 elapsed seconds
Timing for main: time 2009-09-18_18:42:00 on domain   1:    6.63740 elapsed seconds
Timing for main: time 2009-09-18_18:45:00 on domain   1:    6.62180 elapsed seconds
Timing for main: time 2009-09-18_18:48:00 on domain   1:    6.62624 elapsed seconds
Timing for main: time 2009-09-18_18:51:00 on domain   1:    6.64079 elapsed seconds
Timing for main: time 2009-09-18_18:54:00 on domain   1:    6.62748 elapsed seconds
Timing for main: time 2009-09-18_18:57:00 on domain   1:    6.65590 elapsed seconds
Timing for main: time 2009-09-18_19:00:00 on domain   1:    6.68028 elapsed seconds
Timing for main: time 2009-09-18_19:03:00 on domain   1:    8.59959 elapsed seconds
Timing for main: time 2009-09-18_19:06:00 on domain   1:    6.63994 elapsed seconds
Timing for main: time 2009-09-18_19:09:00 on domain   1:    6.64530 elapsed seconds
Timing for main: time 2009-09-18_19:12:00 on domain   1:    6.61306 elapsed seconds
Timing for main: time 2009-09-18_19:15:00 on domain   1:    6.62257 elapsed seconds
Timing for main: time 2009-09-18_19:18:00 on domain   1:    6.63243 elapsed seconds
Timing for main: time 2009-09-18_19:21:00 on domain   1:    6.63932 elapsed seconds
Timing for main: time 2009-09-18_19:24:00 on domain   1:    6.65132 elapsed seconds
Timing for main: time 2009-09-18_19:27:00 on domain   1:    6.65673 elapsed seconds
Timing for main: time 2009-09-18_19:30:00 on domain   1:    6.65510 elapsed seconds
Timing for main: time 2009-09-18_19:33:00 on domain   1:    8.58742 elapsed seconds
Timing for main: time 2009-09-18_19:36:00 on domain   1:    6.63704 elapsed seconds
Timing for main: time 2009-09-18_19:39:00 on domain   1:    6.61777 elapsed seconds
Timing for main: time 2009-09-18_19:42:00 on domain   1:    6.61230 elapsed seconds
Timing for main: time 2009-09-18_19:45:00 on domain   1:    6.58849 elapsed seconds
Timing for main: time 2009-09-18_19:48:00 on domain   1:    6.62007 elapsed seconds
Timing for main: time 2009-09-18_19:51:00 on domain   1:    6.61429 elapsed seconds
Timing for main: time 2009-09-18_19:54:00 on domain   1:    6.64058 elapsed seconds
Timing for main: time 2009-09-18_19:57:00 on domain   1:    6.64269 elapsed seconds
Timing for main: time 2009-09-18_20:00:00 on domain   1:    6.66877 elapsed seconds
Timing for main: time 2009-09-18_20:03:00 on domain   1:    8.60596 elapsed seconds
Timing for main: time 2009-09-18_20:06:00 on domain   1:    6.62151 elapsed seconds
Timing for main: time 2009-09-18_20:09:00 on domain   1:    6.60506 elapsed seconds
Timing for main: time 2009-09-18_20:12:00 on domain   1:    6.58060 elapsed seconds
Timing for main: time 2009-09-18_20:15:00 on domain   1:    6.57887 elapsed seconds
Timing for main: time 2009-09-18_20:18:00 on domain   1:    6.61662 elapsed seconds
Timing for main: time 2009-09-18_20:21:00 on domain   1:    6.56434 elapsed seconds
Timing for main: time 2009-09-18_20:24:00 on domain   1:    6.62650 elapsed seconds
Timing for main: time 2009-09-18_20:27:00 on domain   1:    6.61466 elapsed seconds
Timing for main: time 2009-09-18_20:30:00 on domain   1:    6.61330 elapsed seconds
Timing for main: time 2009-09-18_20:33:00 on domain   1:    8.56781 elapsed seconds
Timing for main: time 2009-09-18_20:36:00 on domain   1:    6.58629 elapsed seconds
Timing for main: time 2009-09-18_20:39:00 on domain   1:    6.55769 elapsed seconds
Timing for main: time 2009-09-18_20:42:00 on domain   1:    6.53584 elapsed seconds
Timing for main: time 2009-09-18_20:45:00 on domain   1:    6.53898 elapsed seconds
Timing for main: time 2009-09-18_20:48:00 on domain   1:    6.53550 elapsed seconds
Timing for main: time 2009-09-18_20:51:00 on domain   1:    6.55473 elapsed seconds
Timing for main: time 2009-09-18_20:54:00 on domain   1:    6.56097 elapsed seconds
Timing for main: time 2009-09-18_20:57:00 on domain   1:    6.55113 elapsed seconds
Timing for main: time 2009-09-18_21:00:00 on domain   1:    6.56571 elapsed seconds
Timing for Writing wrfout_d01_2009-09-18_21:00:00 for domain        1:    0.58162 elapsed seconds
Timing for main: time 2009-09-18_21:03:00 on domain   1:    9.11963 elapsed seconds
Timing for main: time 2009-09-18_21:06:00 on domain   1:    6.53986 elapsed seconds
Timing for main: time 2009-09-18_21:09:00 on domain   1:    6.52790 elapsed seconds
Timing for main: time 2009-09-18_21:12:00 on domain   1:    6.50851 elapsed seconds
Timing for main: time 2009-09-18_21:15:00 on domain   1:    6.49204 elapsed seconds
Timing for main: time 2009-09-18_21:18:00 on domain   1:    6.48475 elapsed seconds
Timing for main: time 2009-09-18_21:21:00 on domain   1:    6.52608 elapsed seconds
Timing for main: time 2009-09-18_21:24:00 on domain   1:    6.50853 elapsed seconds
Timing for main: time 2009-09-18_21:27:00 on domain   1:    6.50615 elapsed seconds
Timing for main: time 2009-09-18_21:30:00 on domain   1:    6.50308 elapsed seconds
Timing for main: time 2009-09-18_21:33:00 on domain   1:    8.48270 elapsed seconds
Timing for main: time 2009-09-18_21:36:00 on domain   1:    6.51691 elapsed seconds
Timing for main: time 2009-09-18_21:39:00 on domain   1:    6.50197 elapsed seconds
Timing for main: time 2009-09-18_21:42:00 on domain   1:    6.49422 elapsed seconds
Timing for main: time 2009-09-18_21:45:00 on domain   1:    6.48787 elapsed seconds
Timing for main: time 2009-09-18_21:48:00 on domain   1:    6.50866 elapsed seconds
Timing for main: time 2009-09-18_21:51:00 on domain   1:    6.51290 elapsed seconds
Timing for main: time 2009-09-18_21:54:00 on domain   1:    6.50941 elapsed seconds
Timing for main: time 2009-09-18_21:57:00 on domain   1:    6.49686 elapsed seconds
Timing for main: time 2009-09-18_22:00:00 on domain   1:    6.51285 elapsed seconds
Timing for main: time 2009-09-18_22:03:00 on domain   1:    8.45302 elapsed seconds
Timing for main: time 2009-09-18_22:06:00 on domain   1:    6.53847 elapsed seconds
Timing for main: time 2009-09-18_22:09:00 on domain   1:    6.48016 elapsed seconds
Timing for main: time 2009-09-18_22:12:00 on domain   1:    6.45379 elapsed seconds
Timing for main: time 2009-09-18_22:15:00 on domain   1:    6.46050 elapsed seconds
Timing for main: time 2009-09-18_22:18:00 on domain   1:    6.47740 elapsed seconds
Timing for main: time 2009-09-18_22:21:00 on domain   1:    6.47134 elapsed seconds
Timing for main: time 2009-09-18_22:24:00 on domain   1:    6.46876 elapsed seconds
Timing for main: time 2009-09-18_22:27:00 on domain   1:    6.45892 elapsed seconds
Timing for main: time 2009-09-18_22:30:00 on domain   1:    6.47318 elapsed seconds
Timing for main: time 2009-09-18_22:33:00 on domain   1:    8.40351 elapsed seconds
Timing for main: time 2009-09-18_22:36:00 on domain   1:    6.46565 elapsed seconds
Timing for main: time 2009-09-18_22:39:00 on domain   1:    6.42185 elapsed seconds
Timing for main: time 2009-09-18_22:42:00 on domain   1:    6.40463 elapsed seconds
Timing for main: time 2009-09-18_22:45:00 on domain   1:    6.42503 elapsed seconds
Timing for main: time 2009-09-18_22:48:00 on domain   1:    6.43777 elapsed seconds
Timing for main: time 2009-09-18_22:51:00 on domain   1:    6.43042 elapsed seconds
Timing for main: time 2009-09-18_22:54:00 on domain   1:    6.40672 elapsed seconds
Timing for main: time 2009-09-18_22:57:00 on domain   1:    6.40156 elapsed seconds
Timing for main: time 2009-09-18_23:00:00 on domain   1:    6.42421 elapsed seconds
Timing for main: time 2009-09-18_23:03:00 on domain   1:    8.36013 elapsed seconds
Timing for main: time 2009-09-18_23:06:00 on domain   1:    6.37765 elapsed seconds
Timing for main: time 2009-09-18_23:09:00 on domain   1:    6.36080 elapsed seconds
Timing for main: time 2009-09-18_23:12:00 on domain   1:    6.36551 elapsed seconds
Timing for main: time 2009-09-18_23:15:00 on domain   1:    6.37902 elapsed seconds
Timing for main: time 2009-09-18_23:18:00 on domain   1:    6.38650 elapsed seconds
Timing for main: time 2009-09-18_23:21:00 on domain   1:    6.37374 elapsed seconds
Timing for main: time 2009-09-18_23:24:00 on domain   1:    6.37302 elapsed seconds
Timing for main: time 2009-09-18_23:27:00 on domain   1:    6.35882 elapsed seconds
Timing for main: time 2009-09-18_23:30:00 on domain   1:    6.36897 elapsed seconds
Timing for main: time 2009-09-18_23:33:00 on domain   1:    8.31833 elapsed seconds
Timing for main: time 2009-09-18_23:36:00 on domain   1:    6.34525 elapsed seconds
Timing for main: time 2009-09-18_23:39:00 on domain   1:    6.33431 elapsed seconds
Timing for main: time 2009-09-18_23:42:00 on domain   1:    6.33594 elapsed seconds
Timing for main: time 2009-09-18_23:45:00 on domain   1:    6.37654 elapsed seconds
Timing for main: time 2009-09-18_23:48:00 on domain   1:    6.35550 elapsed seconds
Timing for main: time 2009-09-18_23:51:00 on domain   1:    6.34224 elapsed seconds
Timing for main: time 2009-09-18_23:54:00 on domain   1:    6.35789 elapsed seconds
Timing for main: time 2009-09-18_23:57:00 on domain   1:    6.37789 elapsed seconds
Timing for main: time 2009-09-19_00:00:00 on domain   1:    6.35184 elapsed seconds
Timing for Writing wrfout_d01_2009-09-19_00:00:00 for domain        1:    0.58617 elapsed seconds
d01 2009-09-19_00:00:00  Input data is acceptable to use: wrfbdy_d01
Timing for processing lateral boundary for domain        1:    0.92468 elapsed seconds
Timing for main: time 2009-09-19_00:03:00 on domain   1:    9.84879 elapsed seconds
Timing for main: time 2009-09-19_00:06:00 on domain   1:    6.34487 elapsed seconds
Timing for main: time 2009-09-19_00:09:00 on domain   1:    6.32735 elapsed seconds
Timing for main: time 2009-09-19_00:12:00 on domain   1:    6.35395 elapsed seconds
Timing for main: time 2009-09-19_00:15:00 on domain   1:    6.36569 elapsed seconds
Timing for main: time 2009-09-19_00:18:00 on domain   1:    6.33343 elapsed seconds
Timing for main: time 2009-09-19_00:21:00 on domain   1:    6.32415 elapsed seconds
Timing for main: time 2009-09-19_00:24:00 on domain   1:    6.34432 elapsed seconds
Timing for main: time 2009-09-19_00:27:00 on domain   1:    6.33594 elapsed seconds
Timing for main: time 2009-09-19_00:30:00 on domain   1:    6.35240 elapsed seconds
Timing for main: time 2009-09-19_00:33:00 on domain   1:    8.29272 elapsed seconds
Timing for main: time 2009-09-19_00:36:00 on domain   1:    6.32172 elapsed seconds
Timing for main: time 2009-09-19_00:39:00 on domain   1:    6.31744 elapsed seconds
Timing for main: time 2009-09-19_00:42:00 on domain   1:    6.32783 elapsed seconds
Timing for main: time 2009-09-19_00:45:00 on domain   1:    6.34501 elapsed seconds
Timing for main: time 2009-09-19_00:48:00 on domain   1:    6.34030 elapsed seconds
Timing for main: time 2009-09-19_00:51:00 on domain   1:    6.37314 elapsed seconds
Timing for main: time 2009-09-19_00:54:00 on domain   1:    6.32767 elapsed seconds
Timing for main: time 2009-09-19_00:57:00 on domain   1:    6.31926 elapsed seconds
Timing for main: time 2009-09-19_01:00:00 on domain   1:    6.33306 elapsed seconds
Timing for main: time 2009-09-19_01:03:00 on domain   1:    8.27715 elapsed seconds
Timing for main: time 2009-09-19_01:06:00 on domain   1:    6.29500 elapsed seconds
Timing for main: time 2009-09-19_01:09:00 on domain   1:    6.27627 elapsed seconds
Timing for main: time 2009-09-19_01:12:00 on domain   1:    6.29675 elapsed seconds
Timing for main: time 2009-09-19_01:15:00 on domain   1:    6.32200 elapsed seconds
Timing for main: time 2009-09-19_01:18:00 on domain   1:    6.32202 elapsed seconds
Timing for main: time 2009-09-19_01:21:00 on domain   1:    6.31783 elapsed seconds
Timing for main: time 2009-09-19_01:24:00 on domain   1:    6.31235 elapsed seconds
Timing for main: time 2009-09-19_01:27:00 on domain   1:    6.30314 elapsed seconds
Timing for main: time 2009-09-19_01:30:00 on domain   1:    6.33399 elapsed seconds
Timing for main: time 2009-09-19_01:33:00 on domain   1:    8.25411 elapsed seconds
Timing for main: time 2009-09-19_01:36:00 on domain   1:    6.27682 elapsed seconds
Timing for main: time 2009-09-19_01:39:00 on domain   1:    6.27143 elapsed seconds
Timing for main: time 2009-09-19_01:42:00 on domain   1:    6.29747 elapsed seconds
Timing for main: time 2009-09-19_01:45:00 on domain   1:    6.30103 elapsed seconds
Timing for main: time 2009-09-19_01:48:00 on domain   1:    6.30269 elapsed seconds
Timing for main: time 2009-09-19_01:51:00 on domain   1:    6.27955 elapsed seconds
Timing for main: time 2009-09-19_01:54:00 on domain   1:    6.28595 elapsed seconds
Timing for main: time 2009-09-19_01:57:00 on domain   1:    6.29388 elapsed seconds
Timing for main: time 2009-09-19_02:00:00 on domain   1:    6.29935 elapsed seconds
Timing for main: time 2009-09-19_02:03:00 on domain   1:    8.24437 elapsed seconds
Timing for main: time 2009-09-19_02:06:00 on domain   1:    6.27092 elapsed seconds
Timing for main: time 2009-09-19_02:09:00 on domain   1:    6.26976 elapsed seconds
Timing for main: time 2009-09-19_02:12:00 on domain   1:    6.29101 elapsed seconds
Timing for main: time 2009-09-19_02:15:00 on domain   1:    6.28780 elapsed seconds
Timing for main: time 2009-09-19_02:18:00 on domain   1:    6.27499 elapsed seconds
Timing for main: time 2009-09-19_02:21:00 on domain   1:    6.26261 elapsed seconds
Timing for main: time 2009-09-19_02:24:00 on domain   1:    6.27705 elapsed seconds
Timing for main: time 2009-09-19_02:27:00 on domain   1:    6.27237 elapsed seconds
Timing for main: time 2009-09-19_02:30:00 on domain   1:    6.28572 elapsed seconds
Timing for main: time 2009-09-19_02:33:00 on domain   1:    8.20342 elapsed seconds
Timing for main: time 2009-09-19_02:36:00 on domain   1:    6.26193 elapsed seconds
Timing for main: time 2009-09-19_02:39:00 on domain   1:    6.26219 elapsed seconds
Timing for main: time 2009-09-19_02:42:00 on domain   1:    6.29108 elapsed seconds
Timing for main: time 2009-09-19_02:45:00 on domain   1:    6.25764 elapsed seconds
Timing for main: time 2009-09-19_02:48:00 on domain   1:    6.24650 elapsed seconds
Timing for main: time 2009-09-19_02:51:00 on domain   1:    6.25488 elapsed seconds
Timing for main: time 2009-09-19_02:54:00 on domain   1:    6.26862 elapsed seconds
Timing for main: time 2009-09-19_02:57:00 on domain   1:    6.24725 elapsed seconds
Timing for main: time 2009-09-19_03:00:00 on domain   1:    6.26143 elapsed seconds
Timing for Writing wrfout_d01_2009-09-19_03:00:00 for domain        1:    0.58811 elapsed seconds
Timing for main: time 2009-09-19_03:03:00 on domain   1:    8.84157 elapsed seconds
Timing for main: time 2009-09-19_03:06:00 on domain   1:    6.26010 elapsed seconds
Timing for main: time 2009-09-19_03:09:00 on domain   1:    6.26429 elapsed seconds
Timing for main: time 2009-09-19_03:12:00 on domain   1:    6.30780 elapsed seconds
Timing for main: time 2009-09-19_03:15:00 on domain   1:    6.29536 elapsed seconds
Timing for main: time 2009-09-19_03:18:00 on domain   1:    6.27671 elapsed seconds
Timing for main: time 2009-09-19_03:21:00 on domain   1:    6.24866 elapsed seconds
Timing for main: time 2009-09-19_03:24:00 on domain   1:    6.26888 elapsed seconds
Timing for main: time 2009-09-19_03:27:00 on domain   1:    6.23909 elapsed seconds
Timing for main: time 2009-09-19_03:30:00 on domain   1:    6.25532 elapsed seconds
Timing for main: time 2009-09-19_03:33:00 on domain   1:    8.19005 elapsed seconds
Timing for main: time 2009-09-19_03:36:00 on domain   1:    6.23497 elapsed seconds
Timing for main: time 2009-09-19_03:39:00 on domain   1:    6.25033 elapsed seconds
Timing for main: time 2009-09-19_03:42:00 on domain   1:    6.23453 elapsed seconds
Timing for main: time 2009-09-19_03:45:00 on domain   1:    6.24317 elapsed seconds
Timing for main: time 2009-09-19_03:48:00 on domain   1:    6.24958 elapsed seconds
Timing for main: time 2009-09-19_03:51:00 on domain   1:    6.24293 elapsed seconds
Timing for main: time 2009-09-19_03:54:00 on domain   1:    6.24382 elapsed seconds
Timing for main: time 2009-09-19_03:57:00 on domain   1:    6.24706 elapsed seconds
Timing for main: time 2009-09-19_04:00:00 on domain   1:    6.24799 elapsed seconds
Timing for main: time 2009-09-19_04:03:00 on domain   1:    8.21092 elapsed seconds
Timing for main: time 2009-09-19_04:06:00 on domain   1:    6.22877 elapsed seconds
Timing for main: time 2009-09-19_04:09:00 on domain   1:    6.22435 elapsed seconds
Timing for main: time 2009-09-19_04:12:00 on domain   1:    6.25224 elapsed seconds
Timing for main: time 2009-09-19_04:15:00 on domain   1:    6.24476 elapsed seconds
Timing for main: time 2009-09-19_04:18:00 on domain   1:    6.23397 elapsed seconds
Timing for main: time 2009-09-19_04:21:00 on domain   1:    6.24511 elapsed seconds
Timing for main: time 2009-09-19_04:24:00 on domain   1:    6.21225 elapsed seconds
Timing for main: time 2009-09-19_04:27:00 on domain   1:    6.21296 elapsed seconds
Timing for main: time 2009-09-19_04:30:00 on domain   1:    6.26367 elapsed seconds
Timing for main: time 2009-09-19_04:33:00 on domain   1:    8.22347 elapsed seconds
Timing for main: time 2009-09-19_04:36:00 on domain   1:    6.29832 elapsed seconds
Timing for main: time 2009-09-19_04:39:00 on domain   1:    6.23600 elapsed seconds
Timing for main: time 2009-09-19_04:42:00 on domain   1:    6.24476 elapsed seconds
Timing for main: time 2009-09-19_04:45:00 on domain   1:    6.26742 elapsed seconds
Timing for main: time 2009-09-19_04:48:00 on domain   1:    6.24842 elapsed seconds
Timing for main: time 2009-09-19_04:51:00 on domain   1:    6.24186 elapsed seconds
Timing for main: time 2009-09-19_04:54:00 on domain   1:    6.25160 elapsed seconds
Timing for main: time 2009-09-19_04:57:00 on domain   1:    6.23379 elapsed seconds
Timing for main: time 2009-09-19_05:00:00 on domain   1:    6.24479 elapsed seconds
Timing for main: time 2009-09-19_05:03:00 on domain   1:    8.20827 elapsed seconds
Timing for main: time 2009-09-19_05:06:00 on domain   1:    6.24655 elapsed seconds
Timing for main: time 2009-09-19_05:09:00 on domain   1:    6.25749 elapsed seconds
Timing for main: time 2009-09-19_05:12:00 on domain   1:    6.26721 elapsed seconds
Timing for main: time 2009-09-19_05:15:00 on domain   1:    6.28216 elapsed seconds
Timing for main: time 2009-09-19_05:18:00 on domain   1:    6.27697 elapsed seconds
Timing for main: time 2009-09-19_05:21:00 on domain   1:    6.25038 elapsed seconds
Timing for main: time 2009-09-19_05:24:00 on domain   1:    6.25156 elapsed seconds
Timing for main: time 2009-09-19_05:27:00 on domain   1:    6.27247 elapsed seconds
Timing for main: time 2009-09-19_05:30:00 on domain   1:    6.27944 elapsed seconds
Timing for main: time 2009-09-19_05:33:00 on domain   1:    8.26074 elapsed seconds
Timing for main: time 2009-09-19_05:36:00 on domain   1:    6.27960 elapsed seconds
Timing for main: time 2009-09-19_05:39:00 on domain   1:    6.25765 elapsed seconds
Timing for main: time 2009-09-19_05:42:00 on domain   1:    6.26934 elapsed seconds
Timing for main: time 2009-09-19_05:45:00 on domain   1:    6.29057 elapsed seconds
Timing for main: time 2009-09-19_05:48:00 on domain   1:    6.26806 elapsed seconds
Timing for main: time 2009-09-19_05:51:00 on domain   1:    6.26692 elapsed seconds
Timing for main: time 2009-09-19_05:54:00 on domain   1:    6.28503 elapsed seconds
Timing for main: time 2009-09-19_05:57:00 on domain   1:    6.27841 elapsed seconds
Timing for main: time 2009-09-19_06:00:00 on domain   1:    6.28800 elapsed seconds
Timing for Writing wrfout_d01_2009-09-19_06:00:00 for domain        1:    0.58670 elapsed seconds
d01 2009-09-19_06:00:00  Input data is acceptable to use: wrfbdy_d01
Timing for processing lateral boundary for domain        1:    0.89727 elapsed seconds
Timing for main: time 2009-09-19_06:03:00 on domain   1:    9.72816 elapsed seconds
Timing for main: time 2009-09-19_06:06:00 on domain   1:    6.25020 elapsed seconds
Timing for main: time 2009-09-19_06:09:00 on domain   1:    6.28772 elapsed seconds
Timing for main: time 2009-09-19_06:12:00 on domain   1:    6.29230 elapsed seconds
Timing for main: time 2009-09-19_06:15:00 on domain   1:    6.29977 elapsed seconds
Timing for main: time 2009-09-19_06:18:00 on domain   1:    6.28900 elapsed seconds
Timing for main: time 2009-09-19_06:21:00 on domain   1:    6.28461 elapsed seconds
Timing for main: time 2009-09-19_06:24:00 on domain   1:    6.29503 elapsed seconds
Timing for main: time 2009-09-19_06:27:00 on domain   1:    6.30518 elapsed seconds
Timing for main: time 2009-09-19_06:30:00 on domain   1:    6.29843 elapsed seconds
Timing for main: time 2009-09-19_06:33:00 on domain   1:    8.25990 elapsed seconds
Timing for main: time 2009-09-19_06:36:00 on domain   1:    6.29636 elapsed seconds
Timing for main: time 2009-09-19_06:39:00 on domain   1:    6.31285 elapsed seconds
Timing for main: time 2009-09-19_06:42:00 on domain   1:    6.33620 elapsed seconds
Timing for main: time 2009-09-19_06:45:00 on domain   1:    6.30831 elapsed seconds
Timing for main: time 2009-09-19_06:48:00 on domain   1:    6.31704 elapsed seconds
Timing for main: time 2009-09-19_06:51:00 on domain   1:    6.31687 elapsed seconds
Timing for main: time 2009-09-19_06:54:00 on domain   1:    6.34028 elapsed seconds
Timing for main: time 2009-09-19_06:57:00 on domain   1:    6.33898 elapsed seconds
Timing for main: time 2009-09-19_07:00:00 on domain   1:    6.32301 elapsed seconds
Timing for main: time 2009-09-19_07:03:00 on domain   1:    8.26419 elapsed seconds
Timing for main: time 2009-09-19_07:06:00 on domain   1:    6.31131 elapsed seconds
Timing for main: time 2009-09-19_07:09:00 on domain   1:    6.33856 elapsed seconds
Timing for main: time 2009-09-19_07:12:00 on domain   1:    6.33272 elapsed seconds
Timing for main: time 2009-09-19_07:15:00 on domain   1:    6.32839 elapsed seconds
Timing for main: time 2009-09-19_07:18:00 on domain   1:    6.32693 elapsed seconds
Timing for main: time 2009-09-19_07:21:00 on domain   1:    6.35321 elapsed seconds
Timing for main: time 2009-09-19_07:24:00 on domain   1:    6.37948 elapsed seconds
Timing for main: time 2009-09-19_07:27:00 on domain   1:    6.33781 elapsed seconds
Timing for main: time 2009-09-19_07:30:00 on domain   1:    6.37539 elapsed seconds
Timing for main: time 2009-09-19_07:33:00 on domain   1:    8.31825 elapsed seconds
Timing for main: time 2009-09-19_07:36:00 on domain   1:    6.33795 elapsed seconds
Timing for main: time 2009-09-19_07:39:00 on domain   1:    6.35487 elapsed seconds
Timing for main: time 2009-09-19_07:42:00 on domain   1:    6.34612 elapsed seconds
Timing for main: time 2009-09-19_07:45:00 on domain   1:    6.33776 elapsed seconds
Timing for main: time 2009-09-19_07:48:00 on domain   1:    6.35620 elapsed seconds
Timing for main: time 2009-09-19_07:51:00 on domain   1:    6.37163 elapsed seconds
Timing for main: time 2009-09-19_07:54:00 on domain   1:    6.36480 elapsed seconds
Timing for main: time 2009-09-19_07:57:00 on domain   1:    6.36451 elapsed seconds
Timing for main: time 2009-09-19_08:00:00 on domain   1:    6.35968 elapsed seconds
Timing for main: time 2009-09-19_08:03:00 on domain   1:    8.30849 elapsed seconds
Timing for main: time 2009-09-19_08:06:00 on domain   1:    6.37553 elapsed seconds
Timing for main: time 2009-09-19_08:09:00 on domain   1:    6.39392 elapsed seconds
Timing for main: time 2009-09-19_08:12:00 on domain   1:    6.35997 elapsed seconds
Timing for main: time 2009-09-19_08:15:00 on domain   1:    6.36491 elapsed seconds
Timing for main: time 2009-09-19_08:18:00 on domain   1:    6.40951 elapsed seconds
Timing for main: time 2009-09-19_08:21:00 on domain   1:    6.40625 elapsed seconds
Timing for main: time 2009-09-19_08:24:00 on domain   1:    6.39264 elapsed seconds
Timing for main: time 2009-09-19_08:27:00 on domain   1:    6.39804 elapsed seconds
Timing for main: time 2009-09-19_08:30:00 on domain   1:    6.39709 elapsed seconds
Timing for main: time 2009-09-19_08:33:00 on domain   1:    8.35241 elapsed seconds
Timing for main: time 2009-09-19_08:36:00 on domain   1:    6.41083 elapsed seconds
Timing for main: time 2009-09-19_08:39:00 on domain   1:    6.40682 elapsed seconds
Timing for main: time 2009-09-19_08:42:00 on domain   1:    6.40731 elapsed seconds
Timing for main: time 2009-09-19_08:45:00 on domain   1:    6.40775 elapsed seconds
Timing for main: time 2009-09-19_08:48:00 on domain   1:    6.41358 elapsed seconds
Timing for main: time 2009-09-19_08:51:00 on domain   1:    6.42266 elapsed seconds
Timing for main: time 2009-09-19_08:54:00 on domain   1:    6.45198 elapsed seconds
Timing for main: time 2009-09-19_08:57:00 on domain   1:    6.43800 elapsed seconds
Timing for main: time 2009-09-19_09:00:00 on domain   1:    6.42006 elapsed seconds
Timing for Writing wrfout_d01_2009-09-19_09:00:00 for domain        1:    0.58244 elapsed seconds
Timing for main: time 2009-09-19_09:03:00 on domain   1:    8.92805 elapsed seconds
Timing for main: time 2009-09-19_09:06:00 on domain   1:    6.45650 elapsed seconds
Timing for main: time 2009-09-19_09:09:00 on domain   1:    6.44561 elapsed seconds
Timing for main: time 2009-09-19_09:12:00 on domain   1:    6.40764 elapsed seconds
Timing for main: time 2009-09-19_09:15:00 on domain   1:    6.45219 elapsed seconds
Timing for main: time 2009-09-19_09:18:00 on domain   1:    6.42193 elapsed seconds
Timing for main: time 2009-09-19_09:21:00 on domain   1:    6.44351 elapsed seconds
Timing for main: time 2009-09-19_09:24:00 on domain   1:    6.43753 elapsed seconds
Timing for main: time 2009-09-19_09:27:00 on domain   1:    6.43951 elapsed seconds
Timing for main: time 2009-09-19_09:30:00 on domain   1:    6.44404 elapsed seconds
Timing for main: time 2009-09-19_09:33:00 on domain   1:    8.37791 elapsed seconds
Timing for main: time 2009-09-19_09:36:00 on domain   1:    6.45298 elapsed seconds
Timing for main: time 2009-09-19_09:39:00 on domain   1:    6.44010 elapsed seconds
Timing for main: time 2009-09-19_09:42:00 on domain   1:    6.42848 elapsed seconds
Timing for main: time 2009-09-19_09:45:00 on domain   1:    6.43892 elapsed seconds
Timing for main: time 2009-09-19_09:48:00 on domain   1:    6.45007 elapsed seconds
Timing for main: time 2009-09-19_09:51:00 on domain   1:    6.45269 elapsed seconds
Timing for main: time 2009-09-19_09:54:00 on domain   1:    6.43386 elapsed seconds
Timing for main: time 2009-09-19_09:57:00 on domain   1:    6.43128 elapsed seconds
Timing for main: time 2009-09-19_10:00:00 on domain   1:    6.44414 elapsed seconds
Timing for main: time 2009-09-19_10:03:00 on domain   1:    8.37961 elapsed seconds
Timing for main: time 2009-09-19_10:06:00 on domain   1:    6.45453 elapsed seconds
Timing for main: time 2009-09-19_10:09:00 on domain   1:    6.47702 elapsed seconds
Timing for main: time 2009-09-19_10:12:00 on domain   1:    6.42210 elapsed seconds
Timing for main: time 2009-09-19_10:15:00 on domain   1:    6.42907 elapsed seconds
Timing for main: time 2009-09-19_10:18:00 on domain   1:    6.43407 elapsed seconds
Timing for main: time 2009-09-19_10:21:00 on domain   1:    6.43550 elapsed seconds
Timing for main: time 2009-09-19_10:24:00 on domain   1:    6.45295 elapsed seconds
Timing for main: time 2009-09-19_10:27:00 on domain   1:    6.43996 elapsed seconds
Timing for main: time 2009-09-19_10:30:00 on domain   1:    6.47779 elapsed seconds
Timing for main: time 2009-09-19_10:33:00 on domain   1:    8.39841 elapsed seconds
Timing for main: time 2009-09-19_10:36:00 on domain   1:    6.47607 elapsed seconds
Timing for main: time 2009-09-19_10:39:00 on domain   1:    6.47574 elapsed seconds
Timing for main: time 2009-09-19_10:42:00 on domain   1:    6.46582 elapsed seconds
Timing for main: time 2009-09-19_10:45:00 on domain   1:    6.46155 elapsed seconds
Timing for main: time 2009-09-19_10:48:00 on domain   1:    6.44141 elapsed seconds
Timing for main: time 2009-09-19_10:51:00 on domain   1:    6.47613 elapsed seconds
Timing for main: time 2009-09-19_10:54:00 on domain   1:    6.46430 elapsed seconds
Timing for main: time 2009-09-19_10:57:00 on domain   1:    6.46644 elapsed seconds
Timing for main: time 2009-09-19_11:00:00 on domain   1:    6.46412 elapsed seconds
Timing for main: time 2009-09-19_11:03:00 on domain   1:    8.44065 elapsed seconds
Timing for main: time 2009-09-19_11:06:00 on domain   1:    6.46229 elapsed seconds
Timing for main: time 2009-09-19_11:09:00 on domain   1:    6.45221 elapsed seconds
Timing for main: time 2009-09-19_11:12:00 on domain   1:    6.44560 elapsed seconds
Timing for main: time 2009-09-19_11:15:00 on domain   1:    6.45492 elapsed seconds
Timing for main: time 2009-09-19_11:18:00 on domain   1:    6.45731 elapsed seconds
Timing for main: time 2009-09-19_11:21:00 on domain   1:    6.46817 elapsed seconds
Timing for main: time 2009-09-19_11:24:00 on domain   1:    6.48908 elapsed seconds
Timing for main: time 2009-09-19_11:27:00 on domain   1:    6.47839 elapsed seconds
Timing for main: time 2009-09-19_11:30:00 on domain   1:    6.50739 elapsed seconds
Timing for main: time 2009-09-19_11:33:00 on domain   1:    8.43618 elapsed seconds
Timing for main: time 2009-09-19_11:36:00 on domain   1:    6.49184 elapsed seconds
Timing for main: time 2009-09-19_11:39:00 on domain   1:    6.47457 elapsed seconds
Timing for main: time 2009-09-19_11:42:00 on domain   1:    6.47392 elapsed seconds
Timing for main: time 2009-09-19_11:45:00 on domain   1:    6.48687 elapsed seconds
Timing for main: time 2009-09-19_11:48:00 on domain   1:    6.47010 elapsed seconds
Timing for main: time 2009-09-19_11:51:00 on domain   1:    6.48969 elapsed seconds
Timing for main: time 2009-09-19_11:54:00 on domain   1:    6.47871 elapsed seconds
Timing for main: time 2009-09-19_11:57:00 on domain   1:    6.48789 elapsed seconds
Timing for main: time 2009-09-19_12:00:00 on domain   1:    6.55872 elapsed seconds
Timing for Writing wrfout_d01_2009-09-19_12:00:00 for domain        1:    0.58855 elapsed seconds
d01 2009-09-19_12:00:00  Input data is acceptable to use: wrfbdy_d01
Timing for processing lateral boundary for domain        1:    0.06499 elapsed seconds
Timing for main: time 2009-09-19_12:03:00 on domain   1:    9.14147 elapsed seconds
Timing for main: time 2009-09-19_12:06:00 on domain   1:    6.51632 elapsed seconds
Timing for main: time 2009-09-19_12:09:00 on domain   1:    6.50219 elapsed seconds
Timing for main: time 2009-09-19_12:12:00 on domain   1:    6.50187 elapsed seconds
Timing for main: time 2009-09-19_12:15:00 on domain   1:    6.53203 elapsed seconds
Timing for main: time 2009-09-19_12:18:00 on domain   1:    6.52070 elapsed seconds
Timing for main: time 2009-09-19_12:21:00 on domain   1:    6.51824 elapsed seconds
Timing for main: time 2009-09-19_12:24:00 on domain   1:    6.55482 elapsed seconds
Timing for main: time 2009-09-19_12:27:00 on domain   1:    6.55960 elapsed seconds
Timing for main: time 2009-09-19_12:30:00 on domain   1:    6.55149 elapsed seconds
Timing for main: time 2009-09-19_12:33:00 on domain   1:    8.45295 elapsed seconds
Timing for main: time 2009-09-19_12:36:00 on domain   1:    6.51706 elapsed seconds
Timing for main: time 2009-09-19_12:39:00 on domain   1:    6.50966 elapsed seconds
Timing for main: time 2009-09-19_12:42:00 on domain   1:    6.50160 elapsed seconds
Timing for main: time 2009-09-19_12:45:00 on domain   1:    6.49780 elapsed seconds
Timing for main: time 2009-09-19_12:48:00 on domain   1:    6.51681 elapsed seconds
Timing for main: time 2009-09-19_12:51:00 on domain   1:    6.52231 elapsed seconds
Timing for main: time 2009-09-19_12:54:00 on domain   1:    6.55676 elapsed seconds
Timing for main: time 2009-09-19_12:57:00 on domain   1:    6.57309 elapsed seconds
Timing for main: time 2009-09-19_13:00:00 on domain   1:    6.59608 elapsed seconds
Timing for main: time 2009-09-19_13:03:00 on domain   1:    8.48560 elapsed seconds
Timing for main: time 2009-09-19_13:06:00 on domain   1:    6.54242 elapsed seconds
Timing for main: time 2009-09-19_13:09:00 on domain   1:    6.52476 elapsed seconds
Timing for main: time 2009-09-19_13:12:00 on domain   1:    6.51701 elapsed seconds
Timing for main: time 2009-09-19_13:15:00 on domain   1:    6.51134 elapsed seconds
Timing for main: time 2009-09-19_13:18:00 on domain   1:    6.52049 elapsed seconds
Timing for main: time 2009-09-19_13:21:00 on domain   1:    6.52522 elapsed seconds
Timing for main: time 2009-09-19_13:24:00 on domain   1:    6.54914 elapsed seconds
Timing for main: time 2009-09-19_13:27:00 on domain   1:    6.57976 elapsed seconds
Timing for main: time 2009-09-19_13:30:00 on domain   1:    6.57280 elapsed seconds
Timing for main: time 2009-09-19_13:33:00 on domain   1:    8.49709 elapsed seconds
Timing for main: time 2009-09-19_13:36:00 on domain   1:    6.55611 elapsed seconds
Timing for main: time 2009-09-19_13:39:00 on domain   1:    6.55088 elapsed seconds
Timing for main: time 2009-09-19_13:42:00 on domain   1:    6.54805 elapsed seconds
Timing for main: time 2009-09-19_13:45:00 on domain   1:    6.55463 elapsed seconds
Timing for main: time 2009-09-19_13:48:00 on domain   1:    6.55095 elapsed seconds
Timing for main: time 2009-09-19_13:51:00 on domain   1:    6.56566 elapsed seconds
Timing for main: time 2009-09-19_13:54:00 on domain   1:    6.56844 elapsed seconds
Timing for main: time 2009-09-19_13:57:00 on domain   1:    6.57702 elapsed seconds
Timing for main: time 2009-09-19_14:00:00 on domain   1:    6.58654 elapsed seconds
Timing for main: time 2009-09-19_14:03:00 on domain   1:    8.52409 elapsed seconds
Timing for main: time 2009-09-19_14:06:00 on domain   1:    6.57757 elapsed seconds
Timing for main: time 2009-09-19_14:09:00 on domain   1:    6.58120 elapsed seconds
Timing for main: time 2009-09-19_14:12:00 on domain   1:    6.56571 elapsed seconds
Timing for main: time 2009-09-19_14:15:00 on domain   1:    6.58577 elapsed seconds
Timing for main: time 2009-09-19_14:18:00 on domain   1:    6.59805 elapsed seconds
Timing for main: time 2009-09-19_14:21:00 on domain   1:    6.59527 elapsed seconds
Timing for main: time 2009-09-19_14:24:00 on domain   1:    6.61597 elapsed seconds
Timing for main: time 2009-09-19_14:27:00 on domain   1:    6.60678 elapsed seconds
Timing for main: time 2009-09-19_14:30:00 on domain   1:    6.62573 elapsed seconds
Timing for main: time 2009-09-19_14:33:00 on domain   1:    8.53304 elapsed seconds
Timing for main: time 2009-09-19_14:36:00 on domain   1:    6.60747 elapsed seconds
Timing for main: time 2009-09-19_14:39:00 on domain   1:    6.61743 elapsed seconds
Timing for main: time 2009-09-19_14:42:00 on domain   1:    6.58704 elapsed seconds
Timing for main: time 2009-09-19_14:45:00 on domain   1:    6.61124 elapsed seconds
Timing for main: time 2009-09-19_14:48:00 on domain   1:    6.60033 elapsed seconds
Timing for main: time 2009-09-19_14:51:00 on domain   1:    6.63123 elapsed seconds
Timing for main: time 2009-09-19_14:54:00 on domain   1:    6.65210 elapsed seconds
Timing for main: time 2009-09-19_14:57:00 on domain   1:    6.64130 elapsed seconds
Timing for main: time 2009-09-19_15:00:00 on domain   1:    6.63142 elapsed seconds
Timing for Writing wrfout_d01_2009-09-19_15:00:00 for domain        1:    0.58268 elapsed seconds
Timing for main: time 2009-09-19_15:03:00 on domain   1:    9.11084 elapsed seconds
Timing for main: time 2009-09-19_15:06:00 on domain   1:    6.59897 elapsed seconds
Timing for main: time 2009-09-19_15:09:00 on domain   1:    6.62023 elapsed seconds
Timing for main: time 2009-09-19_15:12:00 on domain   1:    6.60175 elapsed seconds
Timing for main: time 2009-09-19_15:15:00 on domain   1:    6.59307 elapsed seconds
Timing for main: time 2009-09-19_15:18:00 on domain   1:    6.61586 elapsed seconds
Timing for main: time 2009-09-19_15:21:00 on domain   1:    6.64607 elapsed seconds
Timing for main: time 2009-09-19_15:24:00 on domain   1:    6.64192 elapsed seconds
Timing for main: time 2009-09-19_15:27:00 on domain   1:    6.62050 elapsed seconds
Timing for main: time 2009-09-19_15:30:00 on domain   1:    6.62827 elapsed seconds
Timing for main: time 2009-09-19_15:33:00 on domain   1:    8.55933 elapsed seconds
Timing for main: time 2009-09-19_15:36:00 on domain   1:    6.62018 elapsed seconds
Timing for main: time 2009-09-19_15:39:00 on domain   1:    6.61233 elapsed seconds
Timing for main: time 2009-09-19_15:42:00 on domain   1:    6.61614 elapsed seconds
Timing for main: time 2009-09-19_15:45:00 on domain   1:    6.61752 elapsed seconds
Timing for main: time 2009-09-19_15:48:00 on domain   1:    6.64213 elapsed seconds
Timing for main: time 2009-09-19_15:51:00 on domain   1:    6.62519 elapsed seconds
Timing for main: time 2009-09-19_15:54:00 on domain   1:    6.65658 elapsed seconds
Timing for main: time 2009-09-19_15:57:00 on domain   1:    6.63523 elapsed seconds
Timing for main: time 2009-09-19_16:00:00 on domain   1:    6.65198 elapsed seconds
Timing for main: time 2009-09-19_16:03:00 on domain   1:    8.56253 elapsed seconds
Timing for main: time 2009-09-19_16:06:00 on domain   1:    6.63501 elapsed seconds
Timing for main: time 2009-09-19_16:09:00 on domain   1:    6.63607 elapsed seconds
Timing for main: time 2009-09-19_16:12:00 on domain   1:    6.62999 elapsed seconds
Timing for main: time 2009-09-19_16:15:00 on domain   1:    6.64885 elapsed seconds
Timing for main: time 2009-09-19_16:18:00 on domain   1:    6.67409 elapsed seconds
Timing for main: time 2009-09-19_16:21:00 on domain   1:    6.67356 elapsed seconds
Timing for main: time 2009-09-19_16:24:00 on domain   1:    6.67746 elapsed seconds
Timing for main: time 2009-09-19_16:27:00 on domain   1:    6.70789 elapsed seconds
Timing for main: time 2009-09-19_16:30:00 on domain   1:    6.69985 elapsed seconds
Timing for main: time 2009-09-19_16:33:00 on domain   1:    8.59887 elapsed seconds
Timing for main: time 2009-09-19_16:36:00 on domain   1:    6.66571 elapsed seconds
Timing for main: time 2009-09-19_16:39:00 on domain   1:    6.65904 elapsed seconds
Timing for main: time 2009-09-19_16:42:00 on domain   1:    6.64516 elapsed seconds
Timing for main: time 2009-09-19_16:45:00 on domain   1:    6.66499 elapsed seconds
Timing for main: time 2009-09-19_16:48:00 on domain   1:    6.67644 elapsed seconds
Timing for main: time 2009-09-19_16:51:00 on domain   1:    6.68153 elapsed seconds
Timing for main: time 2009-09-19_16:54:00 on domain   1:    6.67432 elapsed seconds
Timing for main: time 2009-09-19_16:57:00 on domain   1:    6.67734 elapsed seconds
Timing for main: time 2009-09-19_17:00:00 on domain   1:    6.70025 elapsed seconds
Timing for main: time 2009-09-19_17:03:00 on domain   1:    8.61426 elapsed seconds
Timing for main: time 2009-09-19_17:06:00 on domain   1:    6.71258 elapsed seconds
Timing for main: time 2009-09-19_17:09:00 on domain   1:    6.69321 elapsed seconds
Timing for main: time 2009-09-19_17:12:00 on domain   1:    6.70495 elapsed seconds
Timing for main: time 2009-09-19_17:15:00 on domain   1:    6.69024 elapsed seconds
Timing for main: time 2009-09-19_17:18:00 on domain   1:    6.68387 elapsed seconds
Timing for main: time 2009-09-19_17:21:00 on domain   1:    6.74847 elapsed seconds
Timing for main: time 2009-09-19_17:24:00 on domain   1:    6.69519 elapsed seconds
Timing for main: time 2009-09-19_17:27:00 on domain   1:    6.70423 elapsed seconds
Timing for main: time 2009-09-19_17:30:00 on domain   1:    6.71919 elapsed seconds
Timing for main: time 2009-09-19_17:33:00 on domain   1:    8.65605 elapsed seconds
Timing for main: time 2009-09-19_17:36:00 on domain   1:    6.72755 elapsed seconds
Timing for main: time 2009-09-19_17:39:00 on domain   1:    6.73040 elapsed seconds
Timing for main: time 2009-09-19_17:42:00 on domain   1:    6.70361 elapsed seconds
Timing for main: time 2009-09-19_17:45:00 on domain   1:    6.71527 elapsed seconds
Timing for main: time 2009-09-19_17:48:00 on domain   1:    6.70336 elapsed seconds
Timing for main: time 2009-09-19_17:51:00 on domain   1:    6.70608 elapsed seconds
Timing for main: time 2009-09-19_17:54:00 on domain   1:    6.70930 elapsed seconds
Timing for main: time 2009-09-19_17:57:00 on domain   1:    6.71456 elapsed seconds
Timing for main: time 2009-09-19_18:00:00 on domain   1:    6.73257 elapsed seconds
Timing for Writing wrfout_d01_2009-09-19_18:00:00 for domain        1:    0.58232 elapsed seconds
d01 2009-09-19_18:00:00  Input data is acceptable to use: wrfbdy_d01
Timing for processing lateral boundary for domain        1:    0.06511 elapsed seconds
Timing for main: time 2009-09-19_18:03:00 on domain   1:    9.30995 elapsed seconds
Timing for main: time 2009-09-19_18:06:00 on domain   1:    6.73714 elapsed seconds
Timing for main: time 2009-09-19_18:09:00 on domain   1:    6.72722 elapsed seconds
Timing for main: time 2009-09-19_18:12:00 on domain   1:    6.74355 elapsed seconds
Timing for main: time 2009-09-19_18:15:00 on domain   1:    6.73095 elapsed seconds
Timing for main: time 2009-09-19_18:18:00 on domain   1:    6.72693 elapsed seconds
Timing for main: time 2009-09-19_18:21:00 on domain   1:    6.72196 elapsed seconds
Timing for main: time 2009-09-19_18:24:00 on domain   1:    6.73233 elapsed seconds
Timing for main: time 2009-09-19_18:27:00 on domain   1:    6.73112 elapsed seconds
Timing for main: time 2009-09-19_18:30:00 on domain   1:    6.77126 elapsed seconds
Timing for main: time 2009-09-19_18:33:00 on domain   1:    8.68962 elapsed seconds
Timing for main: time 2009-09-19_18:36:00 on domain   1:    6.77273 elapsed seconds
Timing for main: time 2009-09-19_18:39:00 on domain   1:    6.77696 elapsed seconds
Timing for main: time 2009-09-19_18:42:00 on domain   1:    6.73439 elapsed seconds
Timing for main: time 2009-09-19_18:45:00 on domain   1:    6.74541 elapsed seconds
Timing for main: time 2009-09-19_18:48:00 on domain   1:    6.75477 elapsed seconds
Timing for main: time 2009-09-19_18:51:00 on domain   1:    6.73718 elapsed seconds
Timing for main: time 2009-09-19_18:54:00 on domain   1:    6.74463 elapsed seconds
Timing for main: time 2009-09-19_18:57:00 on domain   1:    6.79044 elapsed seconds
Timing for main: time 2009-09-19_19:00:00 on domain   1:    6.77937 elapsed seconds
Timing for main: time 2009-09-19_19:03:00 on domain   1:    8.76507 elapsed seconds
Timing for main: time 2009-09-19_19:06:00 on domain   1:    6.77386 elapsed seconds
Timing for main: time 2009-09-19_19:09:00 on domain   1:    6.73698 elapsed seconds
Timing for main: time 2009-09-19_19:12:00 on domain   1:    6.71034 elapsed seconds
Timing for main: time 2009-09-19_19:15:00 on domain   1:    6.70886 elapsed seconds
Timing for main: time 2009-09-19_19:18:00 on domain   1:    6.70575 elapsed seconds
Timing for main: time 2009-09-19_19:21:00 on domain   1:    6.73196 elapsed seconds
Timing for main: time 2009-09-19_19:24:00 on domain   1:    6.71344 elapsed seconds
Timing for main: time 2009-09-19_19:27:00 on domain   1:    6.72069 elapsed seconds
Timing for main: time 2009-09-19_19:30:00 on domain   1:    6.74635 elapsed seconds
Timing for main: time 2009-09-19_19:33:00 on domain   1:    8.68237 elapsed seconds
Timing for main: time 2009-09-19_19:36:00 on domain   1:    6.76263 elapsed seconds
Timing for main: time 2009-09-19_19:39:00 on domain   1:    6.72977 elapsed seconds
Timing for main: time 2009-09-19_19:42:00 on domain   1:    6.72421 elapsed seconds
Timing for main: time 2009-09-19_19:45:00 on domain   1:    6.71327 elapsed seconds
Timing for main: time 2009-09-19_19:48:00 on domain   1:    6.69114 elapsed seconds
Timing for main: time 2009-09-19_19:51:00 on domain   1:    6.69622 elapsed seconds
Timing for main: time 2009-09-19_19:54:00 on domain   1:    6.69308 elapsed seconds
Timing for main: time 2009-09-19_19:57:00 on domain   1:    6.73725 elapsed seconds
Timing for main: time 2009-09-19_20:00:00 on domain   1:    6.76286 elapsed seconds
Timing for main: time 2009-09-19_20:03:00 on domain   1:    8.68377 elapsed seconds
Timing for main: time 2009-09-19_20:06:00 on domain   1:    6.72009 elapsed seconds
Timing for main: time 2009-09-19_20:09:00 on domain   1:    6.70974 elapsed seconds
Timing for main: time 2009-09-19_20:12:00 on domain   1:    6.72159 elapsed seconds
Timing for main: time 2009-09-19_20:15:00 on domain   1:    6.71045 elapsed seconds
Timing for main: time 2009-09-19_20:18:00 on domain   1:    6.70331 elapsed seconds
Timing for main: time 2009-09-19_20:21:00 on domain   1:    6.70964 elapsed seconds
Timing for main: time 2009-09-19_20:24:00 on domain   1:    6.71540 elapsed seconds
Timing for main: time 2009-09-19_20:27:00 on domain   1:    6.73370 elapsed seconds
Timing for main: time 2009-09-19_20:30:00 on domain   1:    6.75384 elapsed seconds
Timing for main: time 2009-09-19_20:33:00 on domain   1:    8.67093 elapsed seconds
Timing for main: time 2009-09-19_20:36:00 on domain   1:    6.70467 elapsed seconds
Timing for main: time 2009-09-19_20:39:00 on domain   1:    6.69493 elapsed seconds
Timing for main: time 2009-09-19_20:42:00 on domain   1:    6.66910 elapsed seconds
Timing for main: time 2009-09-19_20:45:00 on domain   1:    6.67742 elapsed seconds
[...]
Timing for main: time 2009-09-29_13:48:00 on domain   1:    6.71871 elapsed seconds
Timing for main: time 2009-09-29_13:51:00 on domain   1:    6.71673 elapsed seconds
Timing for main: time 2009-09-29_13:54:00 on domain   1:    6.70273 elapsed seconds
Timing for main: time 2009-09-29_13:57:00 on domain   1:    6.70228 elapsed seconds
Timing for main: time 2009-09-29_14:00:00 on domain   1:    6.71323 elapsed seconds
Timing for main: time 2009-09-29_14:03:00 on domain   1:    8.67419 elapsed seconds
Timing for main: time 2009-09-29_14:06:00 on domain   1:    6.72878 elapsed seconds
Timing for main: time 2009-09-29_14:09:00 on domain   1:    6.69474 elapsed seconds
Timing for main: time 2009-09-29_14:12:00 on domain   1:    6.68624 elapsed seconds
Timing for main: time 2009-09-29_14:15:00 on domain   1:    6.70690 elapsed seconds
Timing for main: time 2009-09-29_14:18:00 on domain   1:    6.71630 elapsed seconds
Timing for main: time 2009-09-29_14:21:00 on domain   1:    6.73373 elapsed seconds
Timing for main: time 2009-09-29_14:24:00 on domain   1:    6.72830 elapsed seconds
Timing for main: time 2009-09-29_14:27:00 on domain   1:    6.73886 elapsed seconds
Timing for main: time 2009-09-29_14:30:00 on domain   1:    6.73772 elapsed seconds
Timing for main: time 2009-09-29_14:33:00 on domain   1:    8.68781 elapsed seconds
Timing for main: time 2009-09-29_14:36:00 on domain   1:    6.72696 elapsed seconds
Timing for main: time 2009-09-29_14:39:00 on domain   1:    6.72560 elapsed seconds
Timing for main: time 2009-09-29_14:42:00 on domain   1:    6.73520 elapsed seconds
Timing for main: time 2009-09-29_14:45:00 on domain   1:    6.74965 elapsed seconds
Timing for main: time 2009-09-29_14:48:00 on domain   1:    6.74009 elapsed seconds
Timing for main: time 2009-09-29_14:51:00 on domain   1:    6.74422 elapsed seconds
Timing for main: time 2009-09-29_14:54:00 on domain   1:    6.74417 elapsed seconds
Timing for main: time 2009-09-29_14:57:00 on domain   1:    6.77192 elapsed seconds
Timing for main: time 2009-09-29_15:00:00 on domain   1:    6.77136 elapsed seconds
Timing for Writing wrfout_d01_2009-09-29_15:00:00 for domain        1:    0.58767 elapsed seconds
Timing for main: time 2009-09-29_15:03:00 on domain   1:    9.32428 elapsed seconds
Timing for main: time 2009-09-29_15:06:00 on domain   1:    6.74999 elapsed seconds
Timing for main: time 2009-09-29_15:09:00 on domain   1:    6.76741 elapsed seconds
Timing for main: time 2009-09-29_15:12:00 on domain   1:    6.75694 elapsed seconds
Timing for main: time 2009-09-29_15:15:00 on domain   1:    6.75387 elapsed seconds
Timing for main: time 2009-09-29_15:18:00 on domain   1:    6.75115 elapsed seconds
Timing for main: time 2009-09-29_15:21:00 on domain   1:    6.75765 elapsed seconds
Timing for main: time 2009-09-29_15:24:00 on domain   1:    6.75212 elapsed seconds
Timing for main: time 2009-09-29_15:27:00 on domain   1:    6.76352 elapsed seconds
Timing for main: time 2009-09-29_15:30:00 on domain   1:    6.76870 elapsed seconds
Timing for main: time 2009-09-29_15:33:00 on domain   1:    8.71779 elapsed seconds
Timing for main: time 2009-09-29_15:36:00 on domain   1:    6.75218 elapsed seconds
Timing for main: time 2009-09-29_15:39:00 on domain   1:    6.79150 elapsed seconds
Timing for main: time 2009-09-29_15:42:00 on domain   1:    6.77557 elapsed seconds
Timing for main: time 2009-09-29_15:45:00 on domain   1:    6.78053 elapsed seconds
Timing for main: time 2009-09-29_15:48:00 on domain   1:    6.77837 elapsed seconds
Timing for main: time 2009-09-29_15:51:00 on domain   1:    6.84307 elapsed seconds
Timing for main: time 2009-09-29_15:54:00 on domain   1:    6.80111 elapsed seconds
Timing for main: time 2009-09-29_15:57:00 on domain   1:    6.79633 elapsed seconds
Timing for main: time 2009-09-29_16:00:00 on domain   1:    6.82163 elapsed seconds
Timing for main: time 2009-09-29_16:03:00 on domain   1:    8.75438 elapsed seconds
Timing for main: time 2009-09-29_16:06:00 on domain   1:    6.82510 elapsed seconds
Timing for main: time 2009-09-29_16:09:00 on domain   1:    6.81751 elapsed seconds
Timing for main: time 2009-09-29_16:12:00 on domain   1:    6.79572 elapsed seconds
Timing for main: time 2009-09-29_16:15:00 on domain   1:    6.80160 elapsed seconds
Timing for main: time 2009-09-29_16:18:00 on domain   1:    6.80800 elapsed seconds
Timing for main: time 2009-09-29_16:21:00 on domain   1:    6.81870 elapsed seconds
Timing for main: time 2009-09-29_16:24:00 on domain   1:    6.81113 elapsed seconds
Timing for main: time 2009-09-29_16:27:00 on domain   1:    6.80912 elapsed seconds
Timing for main: time 2009-09-29_16:30:00 on domain   1:    6.84704 elapsed seconds
Timing for main: time 2009-09-29_16:33:00 on domain   1:    8.80366 elapsed seconds
Timing for main: time 2009-09-29_16:36:00 on domain   1:    6.83533 elapsed seconds
Timing for main: time 2009-09-29_16:39:00 on domain   1:    6.83131 elapsed seconds
Timing for main: time 2009-09-29_16:42:00 on domain   1:    6.86861 elapsed seconds
Timing for main: time 2009-09-29_16:45:00 on domain   1:    6.81769 elapsed seconds
Timing for main: time 2009-09-29_16:48:00 on domain   1:    6.82176 elapsed seconds
Timing for main: time 2009-09-29_16:51:00 on domain   1:    6.81816 elapsed seconds
Timing for main: time 2009-09-29_16:54:00 on domain   1:    6.82272 elapsed seconds
Timing for main: time 2009-09-29_16:57:00 on domain   1:    6.82394 elapsed seconds
Timing for main: time 2009-09-29_17:00:00 on domain   1:    6.85441 elapsed seconds
Timing for main: time 2009-09-29_17:03:00 on domain   1:    8.80869 elapsed seconds
Timing for main: time 2009-09-29_17:06:00 on domain   1:    6.83018 elapsed seconds
Timing for main: time 2009-09-29_17:09:00 on domain   1:    6.81780 elapsed seconds
Timing for main: time 2009-09-29_17:12:00 on domain   1:    6.82509 elapsed seconds
Timing for main: time 2009-09-29_17:15:00 on domain   1:    6.81314 elapsed seconds
Timing for main: time 2009-09-29_17:18:00 on domain   1:    6.82136 elapsed seconds
Timing for main: time 2009-09-29_17:21:00 on domain   1:    6.82757 elapsed seconds
Timing for main: time 2009-09-29_17:24:00 on domain   1:    6.83400 elapsed seconds
Timing for main: time 2009-09-29_17:27:00 on domain   1:    6.83924 elapsed seconds
Timing for main: time 2009-09-29_17:30:00 on domain   1:    6.88519 elapsed seconds
Timing for main: time 2009-09-29_17:33:00 on domain   1:    8.86696 elapsed seconds
Timing for main: time 2009-09-29_17:36:00 on domain   1:    6.84949 elapsed seconds
Timing for main: time 2009-09-29_17:39:00 on domain   1:    6.84060 elapsed seconds
Timing for main: time 2009-09-29_17:42:00 on domain   1:    6.83859 elapsed seconds
Timing for main: time 2009-09-29_17:45:00 on domain   1:    6.84443 elapsed seconds
Timing for main: time 2009-09-29_17:48:00 on domain   1:    6.84502 elapsed seconds
Timing for main: time 2009-09-29_17:51:00 on domain   1:    6.84698 elapsed seconds
Timing for main: time 2009-09-29_17:54:00 on domain   1:    6.84520 elapsed seconds
Timing for main: time 2009-09-29_17:57:00 on domain   1:    6.87410 elapsed seconds
Timing for main: time 2009-09-29_18:00:00 on domain   1:    6.87168 elapsed seconds
Timing for Writing wrfout_d01_2009-09-29_18:00:00 for domain        1:    0.58859 elapsed seconds
d01 2009-09-29_18:00:00  Input data is acceptable to use: wrfbdy_d01
Timing for processing lateral boundary for domain        1:    0.06522 elapsed seconds
Timing for main: time 2009-09-29_18:03:00 on domain   1:    9.49394 elapsed seconds
Timing for main: time 2009-09-29_18:06:00 on domain   1:    6.83915 elapsed seconds
Timing for main: time 2009-09-29_18:09:00 on domain   1:    6.83153 elapsed seconds
Timing for main: time 2009-09-29_18:12:00 on domain   1:    6.82277 elapsed seconds
Timing for main: time 2009-09-29_18:15:00 on domain   1:    6.83068 elapsed seconds
Timing for main: time 2009-09-29_18:18:00 on domain   1:    6.83280 elapsed seconds
Timing for main: time 2009-09-29_18:21:00 on domain   1:    6.85261 elapsed seconds
Timing for main: time 2009-09-29_18:24:00 on domain   1:    6.89484 elapsed seconds
Timing for main: time 2009-09-29_18:27:00 on domain   1:    6.86302 elapsed seconds
Timing for main: time 2009-09-29_18:30:00 on domain   1:    6.86996 elapsed seconds
Timing for main: time 2009-09-29_18:33:00 on domain   1:    8.82190 elapsed seconds
Timing for main: time 2009-09-29_18:36:00 on domain   1:    6.83639 elapsed seconds
Timing for main: time 2009-09-29_18:39:00 on domain   1:    6.82766 elapsed seconds
Timing for main: time 2009-09-29_18:42:00 on domain   1:    6.82098 elapsed seconds
Timing for main: time 2009-09-29_18:45:00 on domain   1:    6.81493 elapsed seconds
Timing for main: time 2009-09-29_18:48:00 on domain   1:    6.82282 elapsed seconds
Timing for main: time 2009-09-29_18:51:00 on domain   1:    6.85822 elapsed seconds
Timing for main: time 2009-09-29_18:54:00 on domain   1:    6.84172 elapsed seconds
Timing for main: time 2009-09-29_18:57:00 on domain   1:    6.83305 elapsed seconds
Timing for main: time 2009-09-29_19:00:00 on domain   1:    6.86172 elapsed seconds
Timing for main: time 2009-09-29_19:03:00 on domain   1:    8.81262 elapsed seconds
Timing for main: time 2009-09-29_19:06:00 on domain   1:    6.81843 elapsed seconds
Timing for main: time 2009-09-29_19:09:00 on domain   1:    6.81097 elapsed seconds
Timing for main: time 2009-09-29_19:12:00 on domain   1:    6.81012 elapsed seconds
Timing for main: time 2009-09-29_19:15:00 on domain   1:    6.81301 elapsed seconds
Timing for main: time 2009-09-29_19:18:00 on domain   1:    6.87048 elapsed seconds
Timing for main: time 2009-09-29_19:21:00 on domain   1:    6.82755 elapsed seconds
Timing for main: time 2009-09-29_19:24:00 on domain   1:    6.82814 elapsed seconds
Timing for main: time 2009-09-29_19:27:00 on domain   1:    6.81756 elapsed seconds
Timing for main: time 2009-09-29_19:30:00 on domain   1:    6.83352 elapsed seconds
Timing for main: time 2009-09-29_19:33:00 on domain   1:    8.78636 elapsed seconds
Timing for main: time 2009-09-29_19:36:00 on domain   1:    6.80058 elapsed seconds
Timing for main: time 2009-09-29_19:39:00 on domain   1:    6.79684 elapsed seconds
Timing for main: time 2009-09-29_19:42:00 on domain   1:    6.78452 elapsed seconds
Timing for main: time 2009-09-29_19:45:00 on domain   1:    6.80270 elapsed seconds
Timing for main: time 2009-09-29_19:48:00 on domain   1:    6.80261 elapsed seconds
Timing for main: time 2009-09-29_19:51:00 on domain   1:    6.79023 elapsed seconds
Timing for main: time 2009-09-29_19:54:00 on domain   1:    6.78482 elapsed seconds
Timing for main: time 2009-09-29_19:57:00 on domain   1:    6.79492 elapsed seconds
Timing for main: time 2009-09-29_20:00:00 on domain   1:    6.79106 elapsed seconds
Timing for main: time 2009-09-29_20:03:00 on domain   1:    8.76026 elapsed seconds
Timing for main: time 2009-09-29_20:06:00 on domain   1:    6.77539 elapsed seconds
Timing for main: time 2009-09-29_20:09:00 on domain   1:    6.79498 elapsed seconds
Timing for main: time 2009-09-29_20:12:00 on domain   1:    6.77700 elapsed seconds
Timing for main: time 2009-09-29_20:15:00 on domain   1:    6.77386 elapsed seconds
Timing for main: time 2009-09-29_20:18:00 on domain   1:    6.77515 elapsed seconds
Timing for main: time 2009-09-29_20:21:00 on domain   1:    6.77320 elapsed seconds
Timing for main: time 2009-09-29_20:24:00 on domain   1:    6.76559 elapsed seconds
Timing for main: time 2009-09-29_20:27:00 on domain   1:    6.76480 elapsed seconds
Timing for main: time 2009-09-29_20:30:00 on domain   1:    6.76713 elapsed seconds
Timing for main: time 2009-09-29_20:33:00 on domain   1:    8.72761 elapsed seconds
Timing for main: time 2009-09-29_20:36:00 on domain   1:    6.74272 elapsed seconds
Timing for main: time 2009-09-29_20:39:00 on domain   1:    6.74064 elapsed seconds
Timing for main: time 2009-09-29_20:42:00 on domain   1:    6.75777 elapsed seconds
Timing for main: time 2009-09-29_20:45:00 on domain   1:    6.73269 elapsed seconds
Timing for main: time 2009-09-29_20:48:00 on domain   1:    6.73902 elapsed seconds
Timing for main: time 2009-09-29_20:51:00 on domain   1:    6.73163 elapsed seconds
Timing for main: time 2009-09-29_20:54:00 on domain   1:    6.73807 elapsed seconds
Timing for main: time 2009-09-29_20:57:00 on domain   1:    6.72867 elapsed seconds
Timing for main: time 2009-09-29_21:00:00 on domain   1:    6.76878 elapsed seconds
Timing for Writing wrfout_d01_2009-09-29_21:00:00 for domain        1:    0.60925 elapsed seconds
Timing for main: time 2009-09-29_21:03:00 on domain   1:    9.36009 elapsed seconds
Timing for main: time 2009-09-29_21:06:00 on domain   1:    6.74599 elapsed seconds
Timing for main: time 2009-09-29_21:09:00 on domain   1:    6.73780 elapsed seconds
Timing for main: time 2009-09-29_21:12:00 on domain   1:    6.73045 elapsed seconds
Timing for main: time 2009-09-29_21:15:00 on domain   1:    6.71895 elapsed seconds
Timing for main: time 2009-09-29_21:18:00 on domain   1:    6.72261 elapsed seconds
Timing for main: time 2009-09-29_21:21:00 on domain   1:    6.71644 elapsed seconds
Timing for main: time 2009-09-29_21:24:00 on domain   1:    6.72065 elapsed seconds
Timing for main: time 2009-09-29_21:27:00 on domain   1:    6.71382 elapsed seconds
Timing for main: time 2009-09-29_21:30:00 on domain   1:    6.73424 elapsed seconds
Timing for main: time 2009-09-29_21:33:00 on domain   1:    8.70426 elapsed seconds
Timing for main: time 2009-09-29_21:36:00 on domain   1:    6.73332 elapsed seconds
Timing for main: time 2009-09-29_21:39:00 on domain   1:    6.72039 elapsed seconds
Timing for main: time 2009-09-29_21:42:00 on domain   1:    6.72357 elapsed seconds
Timing for main: time 2009-09-29_21:45:00 on domain   1:    6.71503 elapsed seconds
Timing for main: time 2009-09-29_21:48:00 on domain   1:    6.70780 elapsed seconds
Timing for main: time 2009-09-29_21:51:00 on domain   1:    6.69174 elapsed seconds
Timing for main: time 2009-09-29_21:54:00 on domain   1:    6.70452 elapsed seconds
Timing for main: time 2009-09-29_21:57:00 on domain   1:    6.66138 elapsed seconds
Timing for main: time 2009-09-29_22:00:00 on domain   1:    6.68032 elapsed seconds
Timing for main: time 2009-09-29_22:03:00 on domain   1:    8.69025 elapsed seconds
Timing for main: time 2009-09-29_22:06:00 on domain   1:    6.68834 elapsed seconds
Timing for main: time 2009-09-29_22:09:00 on domain   1:    6.67242 elapsed seconds
Timing for main: time 2009-09-29_22:12:00 on domain   1:    6.65799 elapsed seconds
Timing for main: time 2009-09-29_22:15:00 on domain   1:    6.64269 elapsed seconds
Timing for main: time 2009-09-29_22:18:00 on domain   1:    6.63203 elapsed seconds
Timing for main: time 2009-09-29_22:21:00 on domain   1:    6.63101 elapsed seconds
Timing for main: time 2009-09-29_22:24:00 on domain   1:    6.64392 elapsed seconds
Timing for main: time 2009-09-29_22:27:00 on domain   1:    6.64839 elapsed seconds
Timing for main: time 2009-09-29_22:30:00 on domain   1:    6.64900 elapsed seconds
Timing for main: time 2009-09-29_22:33:00 on domain   1:    8.66004 elapsed seconds
Timing for main: time 2009-09-29_22:36:00 on domain   1:    6.63684 elapsed seconds
Timing for main: time 2009-09-29_22:39:00 on domain   1:    6.62806 elapsed seconds
Timing for main: time 2009-09-29_22:42:00 on domain   1:    6.63778 elapsed seconds
Timing for main: time 2009-09-29_22:45:00 on domain   1:    6.63916 elapsed seconds
Timing for main: time 2009-09-29_22:48:00 on domain   1:    6.66448 elapsed seconds
Timing for main: time 2009-09-29_22:51:00 on domain   1:    6.60877 elapsed seconds
Timing for main: time 2009-09-29_22:54:00 on domain   1:    6.60041 elapsed seconds
Timing for main: time 2009-09-29_22:57:00 on domain   1:    6.59475 elapsed seconds
Timing for main: time 2009-09-29_23:00:00 on domain   1:    6.64397 elapsed seconds
Timing for main: time 2009-09-29_23:03:00 on domain   1:    8.61971 elapsed seconds
Timing for main: time 2009-09-29_23:06:00 on domain   1:    6.59618 elapsed seconds
Timing for main: time 2009-09-29_23:09:00 on domain   1:    6.57926 elapsed seconds
Timing for main: time 2009-09-29_23:12:00 on domain   1:    6.57681 elapsed seconds
Timing for main: time 2009-09-29_23:15:00 on domain   1:    6.56071 elapsed seconds
Timing for main: time 2009-09-29_23:18:00 on domain   1:    6.55738 elapsed seconds
Timing for main: time 2009-09-29_23:21:00 on domain   1:    6.54766 elapsed seconds
Timing for main: time 2009-09-29_23:24:00 on domain   1:    6.55713 elapsed seconds
Timing for main: time 2009-09-29_23:27:00 on domain   1:    6.55313 elapsed seconds
Timing for main: time 2009-09-29_23:30:00 on domain   1:    6.58505 elapsed seconds
Timing for main: time 2009-09-29_23:33:00 on domain   1:    8.56551 elapsed seconds
Timing for main: time 2009-09-29_23:36:00 on domain   1:    6.55198 elapsed seconds
Timing for main: time 2009-09-29_23:39:00 on domain   1:    6.56947 elapsed seconds
Timing for main: time 2009-09-29_23:42:00 on domain   1:    6.55859 elapsed seconds
Timing for main: time 2009-09-29_23:45:00 on domain   1:    6.52515 elapsed seconds
Timing for main: time 2009-09-29_23:48:00 on domain   1:    6.53023 elapsed seconds
Timing for main: time 2009-09-29_23:51:00 on domain   1:    6.53298 elapsed seconds
Timing for main: time 2009-09-29_23:54:00 on domain   1:    6.51889 elapsed seconds
Timing for main: time 2009-09-29_23:57:00 on domain   1:    6.52963 elapsed seconds
Timing for main: time 2009-09-30_00:00:00 on domain   1:    6.54797 elapsed seconds
        4920          10
        4930          10
        4940          10
        4950          10
        4960          10
        4970          10
        4980          10
        4990          10
        5000          10
        5010          10
        5020          10
        5030          10
        5040          10
        5050          10
        5060          10
        5070          10
        5080          10
        5090          10
        5100          10
        5110          10
        5120          10
        5130          10
        5140          10
        5150          10
        5160          10
        5170          10
        5180          10
        5190          10
        5200          10
        5210          10
        5220          10
        5230          10
        5240          10
        5250          10
        5260          10
        5270          10
        5280          10
        5290          10
        5300          10
        5310          10
        5320          10
        5330          10
        5340          10
        5350          10
        5360          10
        5370          10
        5380          10
        5390          10
        5400          10
        5410          10
        5420          10
        5430          10
        5440          10
        5450          10
        5460          10
        5470          10
        5480          10
        5490          10
        5500          10
        5510          10
        5520          10
        5530          10
        5540          10
        5550          10
        5560          10
        5570          10
        5580          10
        5590          10
        5600          10
        5610          10
        5620          10
        5630          10
        5640          10
        5650          10
        5660          10
        5670          10
        5680          10
        5690          10
        5700          10
        5710          10
        5720          10
        5730          10
        5740          10
        5750          10
        5760          10
Timing for Writing wrfout_d01_2009-09-30_00:00:00 for domain        1:    0.58963 elapsed seconds
d01 2009-09-30_00:00:00 wrf: SUCCESS COMPLETE WRF
